*Heading
** Job name: Job-1 Model name: Model-1
** Generated by: Abaqus/CAE 6.14-1
*Preprint, echo=NO, model=NO, history=NO, contact=NO
**
** PARTS
**
*Part, name=beam
*End Part
**  
**
** ASSEMBLY
**
*Assembly, name=Assembly
**  
*Instance, name=beam-1, part=beam
*Node
      1,          25.,           0.
      2,          25.,          20.
      3,           0.,          20.
      4,           0.,           0.
      5,          35.,           0.
      6,          35.,          20.
      7,          40.,           0.
      8,          40.,          20.
      9,          50.,           0.
     10,          50.,          20.
     11,          65.,          20.
     12,          65.,           0.
     13,          90.,           0.
     14,          90.,          20.
     15,          55.,           0.
     16,          55.,          20.
     17,          25.,           5.
     18,          25.,          10.
     19,          25.,          15.
     20,          20.,          20.
** ... 75 like lines cut
*Element, type=CPS3
 1,  1, 17, 63
 2, 63, 30,  1
 3, 17, 18, 64
 4, 64, 63, 17
 5, 18, 19, 65
 6, 65, 64, 18
 7, 19,  2, 20
 8, 20, 65, 19
 9, 30, 63, 66
10, 66, 29, 30
11, 63, 64, 67
12, 67, 66, 63
13, 64, 65, 68
14, 68, 67, 64
15, 65, 20, 21
16, 21, 68, 65
17, 29, 66, 69
18, 69, 28, 29
19, 66, 67, 70
20, 70, 69, 66
** ... 124 like lines cut
*Nset, nset=Set-I1
  1,  2,  5,  6,  7,  8,  9, 10, 11, 12, 15, 16, 17, 18, 19, 31
 32, 33, 34, 35, 36, 37, 38, 39, 40, 41, 42, 43, 44, 45, 46, 58
 59, 60, 61, 62, 75, 76, 77, 78, 79, 80, 93, 94, 95
*Elset, elset=Set-I1
  41,  42,  43,  44,  45,  46,  47,  48,  49,  50,  51,  52,  53,  54,  55,  56
  65,  66,  67,  68,  69,  70,  71,  72,  73,  74,  75,  76,  77,  78,  79,  80
 129, 130, 131, 132, 133, 134, 135, 136, 137, 138, 139, 140, 141, 142, 143, 144
*Nset, nset=Set-S
  1,  2,  3,  4,  5,  6,  7,  8,  9, 10, 11, 12, 13, 14, 15, 16
 17, 18, 19, 20, 21, 22, 23, 24, 25, 26, 27, 28, 29, 30, 31, 32
 33, 36, 37, 38, 39, 40, 41, 44, 45, 46, 47, 48, 49, 50, 51, 52
 53, 54, 55, 56, 57, 58, 59, 60, 63, 64, 65, 66, 67, 68, 69, 70
 71, 72, 73, 74, 81, 82, 83, 84, 85, 86, 87, 88, 89, 90, 91, 92
*Elset, elset=Set-S
   1,   2,   3,   4,   5,   6,   7,   8,   9,  10,  11,  12,  13,  14,  15,  16
  17,  18,  19,  20,  21,  22,  23,  24,  25,  26,  27,  28,  29,  30,  31,  32
  33,  34,  35,  36,  37,  38,  39,  40,  57,  58,  59,  60,  61,  62,  63,  64
  81,  82,  83,  84,  85,  86,  87,  88,  89,  90,  91,  92,  93,  94,  95,  96
  97,  98,  99, 100, 101, 102, 103, 104, 105, 106, 107, 108, 109, 110, 111, 112
 113, 114, 115, 116, 117, 118, 119, 120, 121, 122, 123, 124, 125, 126, 127, 128
** Section: Section-S
*Solid Section, elset=Set-S, material=Material-S
,
** Section: Section-I1
*Solid Section, elset=Set-I1, material=Material-I1
,
*End Instance
**  
*Nset, nset=Set-2, instance=beam-1
 13, 14, 51, 52, 53
*Elset, elset=Set-2, instance=beam-1, generate
 114,  120,    2
*Nset, nset=Set-3, instance=beam-1
  2,  6,  8, 10, 11, 16
*Nset, nset=Set-af1, instance=beam-1
 2, 6
*Nset, nset=Set-af2, instance=beam-1
  8, 10
*Nset, nset=Set-af3, instance=beam-1
 11, 16
*Nset, nset=Set-lc, instance=beam-1
  3,  4, 24, 25, 26
*Elset, elset=Set-lc, instance=beam-1, generate
 34,  40,   2
*End Assembly
*Amplitude, name=Amp-af1
            0.1,         0.03317,             0.2,         0.18945,             0.3,         0.57595,             0.4,              1.
            0.5,              1.,             0.6,         0.57595,             0.7,         0.18945,             0.8,         0.03317
            0.9,              0.
*Amplitude, name=Amp-af2
            0.1,         0.24644,             0.2,             -1.,             0.3,         0.24644,             0.4,              0.
*Amplitude, name=Amp-af3
            0.1,        0.013064,             0.2,        0.055097,             0.3,         0.15974,             0.4,         0.35797
            0.5,         0.63398,             0.6,          0.8924,             0.7,              1.,             0.8,          0.8924
            0.9,         0.63398,              1.,         0.35797,             1.1,         0.15974,             1.2,        0.055097
            1.3,        0.013064,             1.4,              0.
** 
** MATERIALS
** 
*Material, name=Material-I1
*Density
 0.01,
*Elastic
1., 0.3
*Material, name=Material-S
*Density
 0.01,
*Elastic
1., 0.3
** ----------------------------------------------------------------
** 
** STEP: Step-af
** 
*Step, name=Step-af, nlgeom=NO, inc=10000
*Dynamic,alpha=0.,direct
0.1,9.9,
** 
** BOUNDARY CONDITIONS
** 
** Name: BC-lc Type: Displacement/Rotation
*Boundary
Set-lc, 1, 1
Set-lc, 2, 2
Set-lc, 6, 6
** Name: BC-rc Type: Displacement/Rotation
*Boundary
Set-2, 1, 1
Set-2, 2, 2
Set-2, 6, 6
** 
** LOADS
** 
** Name: Load-af1   Type: Concentrated force
*Cload, amplitude=Amp-af1
Set-af1, 1, 1.
Set-af1, 2, 1.
** Name: Load-af2   Type: Concentrated force
*Cload, amplitude=Amp-af2
Set-af2, 2, -1.
** Name: Load-af3   Type: Concentrated force
*Cload
Set-af3, 2, -1.
** 
** OUTPUT REQUESTS
** 
*Restart, write, frequency=0
** 
** FIELD OUTPUT: F-Output-1
** 
*Output, field, variable=PRESELECT, frequency=1
** 
** HISTORY OUTPUT: H-Output-1
** 
*Output, history, variable=PRESELECT
*End Step
