1

   Abaqus 6.14-1                                  Date 23-Jun-2018   Time 20:42:27
   For use at CARDIFF UNIVERSITY under license from Dassault Systemes or its subsidiary.



                         The Abaqus Software is a product of:

                           Dassault Systemes Simulia Corp.
                                 Rising Sun Mills
                                 166 Valley Street
                           Providence, RI 02909-2499, USA
 


                   Available for internal use at CARDIFF UNIVERSITY. 
                   The Abaqus Online Support System is accessible
                   through the "My Support" section of the SIMULIA
                   Home Page at http://www.simulia.com.

                   Support policies for academic licenses are described
                   on the SIMULIA web site at
                   http://www.3ds.com/products/simulia/academics/
 
                          On machine xiaohan 
                          you are authorized to run
                          Abaqus/Standard until 12-Sep-2018

                          Your site id is: 200000000040428 


 
                    For assistance or any other information you may
                    obtain contact information for your local office
                    from the world wide web at:

                      http://www.3ds.com/products/simulia/locations/

 
                * * * * * * * * * * * * * * * * * * * * * * * * * * * * * * 
                *                                                         * 
                *                   *****************                     * 
                *                   *  N O T I C E  *                     * 
                *                   *****************                     * 
                *                                                         * 
                *                                                         * 
                *                    Abaqus 6.14-1                        * 
                *                                                         * 
                *          BUILD ID: 2014_06_04-20.37.49 134264           * 
                *                                                         * 
                *                                                         * 
                *  Please make sure you are using release 6.14 manuals    * 
                *  plus the notes accompanying this release.              * 
                *                                                         * 
                *                                                         * 
                *                                                         * 
                *                                                         * 
                *                                                         * 
                *   This program may not be used for commercial purposes  * 
                *           without payment of a commercial fee.          * 
                *                                                         * 
                * * * * * * * * * * * * * * * * * * * * * * * * * * * * * * 


 



     PROCESSING PART, INSTANCE, AND ASSEMBLY INFORMATION
   *******************************************************


     END PROCESSING PART, INSTANCE, AND ASSEMBLY INFORMATION
   ***********************************************************




     OPTIONS BEING PROCESSED
   ***************************


  *Heading
  *Node
  *Element, type=CPS3
  *Nset, nset=ASSEMBLY_BEAM-1_SET-I1
  *Nset, nset=ASSEMBLY_BEAM-1_SET-S
  *Elset, elset=ASSEMBLY_BEAM-1_SET-I1
  *Elset, elset=ASSEMBLY_BEAM-1_SET-S
  *Nset, nset=ASSEMBLY_SET-AF
  *Nset, nset=ASSEMBLY_SET-LC
  *Nset, nset=ASSEMBLY_SET-RC
  *Elset, elset=ASSEMBLY_SET-LC
  *Elset, elset=ASSEMBLY_SET-RC
  *material, name=MATERIAL-I1
  *density
  *elastic
  *material, name=MATERIAL-S
  *density
  *elastic
  *solidsection, elset=ASSEMBLY_BEAM-1_SET-S, material=MATERIAL-S
  *solidsection, elset=ASSEMBLY_BEAM-1_SET-I1, material=MATERIAL-I1
  *solidsection, elset=ASSEMBLY_BEAM-1_SET-S, material=MATERIAL-S
  *solidsection, elset=ASSEMBLY_BEAM-1_SET-I1, material=MATERIAL-I1
  *output, field, variable=PRESELECT, frequency=1
  *output, history, variable=PRESELECT, frequency=1
  *output, field, variable=PRESELECT, frequency=1
  *output, history, variable=PRESELECT, frequency=1
  *output, field, variable=PRESELECT, frequency=1
  *output, history, variable=PRESELECT, frequency=1
  *amplitude, name=AMP-AF
  *Step, name=exportmatrix
  *Step, name=Step-af, inc=10000
  *output, field, variable=PRESELECT, frequency=1
  *output, history, variable=PRESELECT, frequency=1
  *Step, name=exportmatrix
  *Step, name=Step-af, inc=10000
  *Step, name=exportmatrix
  *matrixgenerate, stiffness, mass
  *matrixoutput, stiffness, format=MATRIXINPUT, mass
  *endstep
  *Step, name=Step-af, inc=10000
  *dynamic, alpha=0, directusercontrol
  *boundary
  *boundary
  *output, field, variable=PRESELECT, frequency=1
  *output, history, variable=PRESELECT, frequency=1
  *nodeprint
  *endstep
  *Step, name=exportmatrix
  *endstep
  *Step, name=Step-af, inc=10000
  *dynamic, alpha=0, directusercontrol
  *boundary

 ***WARNING: DEGREE OF FREEDOM 6 IS NOT ACTIVE IN THIS MODEL AND CANNOT BE 
             RESTRAINED.
  *boundary

 ***WARNING: DEGREE OF FREEDOM 6 IS NOT ACTIVE IN THIS MODEL AND CANNOT BE 
             RESTRAINED.
  *cload, amplitude=AMP-AF
  *endstep


                              E L E M E N T,   N O D E,   A N D   S U R F A C E   M A P S


**NOTE: This section may not include complete information about
        members of sets and surfaces. Use *PREPRINT, MODEL=YES 
        in order to get the set and surface members printed    
        under the following sections:                          
            - E L E M E N T   S E T S                          
            - N O D E   S E T S                                
            - S U R F A C E   D E F I N I T I O N S .          


Assembly name: ASSEMBLY
Number of instances: 1

ASSEMBLY LEVEL
  node sets:
    SET-AF:
      instance name: BEAM-1
      number of nodes: 1
      nodes: 
        9

    SET-LC:
      instance name: BEAM-1
      number of nodes: 11
      nodes: 
        3 4 36 37 38 39 40 41 42 43 44

    SET-RC:
      instance name: BEAM-1
      number of nodes: 11
      nodes: 
        7 8 88 89 90 91 92 93 94 95 96

  element sets:
    SET-LC:
      instance name: BEAM-1
      number of elements: 10
      elements: 
        342 344 346 348 350 352 354 356 358 360

    SET-RC:
      instance name: BEAM-1
      number of elements: 10
      elements: 
        702 704 706 708 710 712 714 716 718 720

  Surfaces:

INSTANCE LEVEL
  node sets:
    Instance name: BEAM-1
      node set name: SET-I1
        number of nodes: 121
        nodes: 
          1 2 5 6 9 10 11 12 13 14 15 16 17 18 62 63 64 65 66 67 68 69
          70 114 115 116 117 118 119 120 121 122 123 124 125 126 127 128
          129 130 437 438 439 440 441 442 443 444 445 446 447 448 449
          450 451 452 453 454 455 456 457 458 459 460 461 462 463 464
          465 466 467 468 469 470 471 472 473 474 475 476 477 478 479
          480 481 482 483 484 485 486 487 488 489 490 491 492 493 494
          495 496 497 498 499 500 501 502 503 504 505 506 507 508 509
          510 511 512 513 514 515 516 517
      node set name: SET-S
        number of nodes: 418
        nodes: 
          1 2 3 4 5 6 7 8 10 11 12 13 14 15 16 17 18 19 20 21 22 23 24
          25 26 27 28 29 30 31 32 33 34 35 36 37 38 39 40 41 42 43 44 45
          46 47 48 49 50 51 52 53 54 55 56 57 58 59 60 61 62 63 64 65 66
          67 68 69 70 71 72 73 74 75 76 77 78 79 80 81 82 83 84 85 86 87
          88 89 90 91 92 93 94 95 96 97 98 99 100 101 102 103 104 105
          106 107 108 109 110 111 112 113 131 132 133 134 135 136 137
          138 139 140 141 142 143 144 145 146 147 148 149 150 151 152
          153 154 155 156 157 158 159 160 161 162 163 164 165 166 167
          168 169 170 171 172 173 174 175 176 177 178 179 180 181 182
          183 184 185 186 187 188 189 190 191 192 193 194 195 196 197
          198 199 200 201 202 203 204 205 206 207 208 209 210 211 212
          213 214 215 216 217 218 219 220 221 222 223 224 225 226 227
          228 229 230 231 232 233 234 235 236 237 238 239 240 241 242
          243 244 245 246 247 248 249 250 251 252 253 254 255 256 257
          258 259 260 261 262 263 264 265 266 267 268 269 270 271 272
          273 274 275 276 277 278 279 280 281 282 283 284 285 286 287
          288 289 290 291 292 293 294 295 296 297 298 299 300 301 302
          303 304 305 306 307 308 309 310 311 312 313 314 315 316 317
          318 319 320 321 322 323 324 325 326 327 328 329 330 331 332
          333 334 335 336 337 338 339 340 341 342 343 344 345 346 347
          348 349 350 351 352 353 354 355 356 357 358 359 360 361 362
          363 364 365 366 367 368 369 370 371 372 373 374 375 376 377
          378 379 380 381 382 383 384 385 386 387 388 389 390 391 392
          393 394 395 396 397 398 399 400 401 402 403 404 405 406 407
          408 409 410 411 412 413 414 415 416 417 418 419 420 421 422
          423 424 425 426 427 428 429 430 431 432 433 434 435 436

  element sets:
    Instance name: BEAM-1
      element set name: SET-I1
        number of elements: 200
        elements: 
          721 722 723 724 725 726 727 728 729 730 731 732 733 734 735
          736 737 738 739 740 741 742 743 744 745 746 747 748 749 750
          751 752 753 754 755 756 757 758 759 760 761 762 763 764 765
          766 767 768 769 770 771 772 773 774 775 776 777 778 779 780
          781 782 783 784 785 786 787 788 789 790 791 792 793 794 795
          796 797 798 799 800 801 802 803 804 805 806 807 808 809 810
          811 812 813 814 815 816 817 818 819 820 821 822 823 824 825
          826 827 828 829 830 831 832 833 834 835 836 837 838 839 840
          841 842 843 844 845 846 847 848 849 850 851 852 853 854 855
          856 857 858 859 860 861 862 863 864 865 866 867 868 869 870
          871 872 873 874 875 876 877 878 879 880 881 882 883 884 885
          886 887 888 889 890 891 892 893 894 895 896 897 898 899 900
          901 902 903 904 905 906 907 908 909 910 911 912 913 914 915
          916 917 918 919 920
      element set name: SET-S
        number of elements: 720
        elements: 
          1 2 3 4 5 6 7 8 9 10 11 12 13 14 15 16 17 18 19 20 21 22 23 24
          25 26 27 28 29 30 31 32 33 34 35 36 37 38 39 40 41 42 43 44 45
          46 47 48 49 50 51 52 53 54 55 56 57 58 59 60 61 62 63 64 65 66
          67 68 69 70 71 72 73 74 75 76 77 78 79 80 81 82 83 84 85 86 87
          88 89 90 91 92 93 94 95 96 97 98 99 100 101 102 103 104 105
          106 107 108 109 110 111 112 113 114 115 116 117 118 119 120
          121 122 123 124 125 126 127 128 129 130 131 132 133 134 135
          136 137 138 139 140 141 142 143 144 145 146 147 148 149 150
          151 152 153 154 155 156 157 158 159 160 161 162 163 164 165
          166 167 168 169 170 171 172 173 174 175 176 177 178 179 180
          181 182 183 184 185 186 187 188 189 190 191 192 193 194 195
          196 197 198 199 200 201 202 203 204 205 206 207 208 209 210
          211 212 213 214 215 216 217 218 219 220 221 222 223 224 225
          226 227 228 229 230 231 232 233 234 235 236 237 238 239 240
          241 242 243 244 245 246 247 248 249 250 251 252 253 254 255
          256 257 258 259 260 261 262 263 264 265 266 267 268 269 270
          271 272 273 274 275 276 277 278 279 280 281 282 283 284 285
          286 287 288 289 290 291 292 293 294 295 296 297 298 299 300
          301 302 303 304 305 306 307 308 309 310 311 312 313 314 315
          316 317 318 319 320 321 322 323 324 325 326 327 328 329 330
          331 332 333 334 335 336 337 338 339 340 341 342 343 344 345
          346 347 348 349 350 351 352 353 354 355 356 357 358 359 360
          361 362 363 364 365 366 367 368 369 370 371 372 373 374 375
          376 377 378 379 380 381 382 383 384 385 386 387 388 389 390
          391 392 393 394 395 396 397 398 399 400 401 402 403 404 405
          406 407 408 409 410 411 412 413 414 415 416 417 418 419 420
          421 422 423 424 425 426 427 428 429 430 431 432 433 434 435
          436 437 438 439 440 441 442 443 444 445 446 447 448 449 450
          451 452 453 454 455 456 457 458 459 460 461 462 463 464 465
          466 467 468 469 470 471 472 473 474 475 476 477 478 479 480
          481 482 483 484 485 486 487 488 489 490 491 492 493 494 495
          496 497 498 499 500 501 502 503 504 505 506 507 508 509 510
          511 512 513 514 515 516 517 518 519 520 521 522 523 524 525
          526 527 528 529 530 531 532 533 534 535 536 537 538 539 540
          541 542 543 544 545 546 547 548 549 550 551 552 553 554 555
          556 557 558 559 560 561 562 563 564 565 566 567 568 569 570
          571 572 573 574 575 576 577 578 579 580 581 582 583 584 585
          586 587 588 589 590 591 592 593 594 595 596 597 598 599 600
          601 602 603 604 605 606 607 608 609 610 611 612 613 614 615
          616 617 618 619 620 621 622 623 624 625 626 627 628 629 630
          631 632 633 634 635 636 637 638 639 640 641 642 643 644 645
          646 647 648 649 650 651 652 653 654 655 656 657 658 659 660
          661 662 663 664 665 666 667 668 669 670 671 672 673 674 675
          676 677 678 679 680 681 682 683 684 685 686 687 688 689 690
          691 692 693 694 695 696 697 698 699 700 701 702 703 704 705
          706 707 708 709 710 711 712 713 714 715 716 717 718 719 720

  Surfaces:

GLOBAL TO LOCAL NODE AND ELEMENT MAPS
  Global     Local      
  node       node       
  number     number     
                        Instance name                                   
   1          1         BEAM-1                                          
   2          2         BEAM-1                                          
   3          3         BEAM-1                                          
   4          4         BEAM-1                                          
   5          5         BEAM-1                                          
   6          6         BEAM-1                                          
   7          7         BEAM-1                                          
   8          8         BEAM-1                                          
   9          9         BEAM-1                                          
   10         10        BEAM-1                                          
   11         11        BEAM-1                                          
   12         12        BEAM-1                                          
   13         13        BEAM-1                                          
   14         14        BEAM-1                                          
   15         15        BEAM-1                                          
   16         16        BEAM-1                                          
   17         17        BEAM-1                                          
   18         18        BEAM-1                                          
   19         19        BEAM-1                                          
   20         20        BEAM-1                                          
   21         21        BEAM-1                                          
   22         22        BEAM-1                                          
   23         23        BEAM-1                                          
   24         24        BEAM-1                                          
   25         25        BEAM-1                                          
   26         26        BEAM-1                                          
   27         27        BEAM-1                                          
   28         28        BEAM-1                                          
   29         29        BEAM-1                                          
   30         30        BEAM-1                                          
   31         31        BEAM-1                                          
   32         32        BEAM-1                                          
   33         33        BEAM-1                                          
   34         34        BEAM-1                                          
   35         35        BEAM-1                                          
   36         36        BEAM-1                                          
   37         37        BEAM-1                                          
   38         38        BEAM-1                                          
   39         39        BEAM-1                                          
   40         40        BEAM-1                                          
   41         41        BEAM-1                                          
   42         42        BEAM-1                                          
   43         43        BEAM-1                                          
   44         44        BEAM-1                                          
   45         45        BEAM-1                                          
   46         46        BEAM-1                                          
   47         47        BEAM-1                                          
   48         48        BEAM-1                                          
   49         49        BEAM-1                                          
   50         50        BEAM-1                                          
   51         51        BEAM-1                                          
   52         52        BEAM-1                                          
   53         53        BEAM-1                                          
   54         54        BEAM-1                                          
   55         55        BEAM-1                                          
   56         56        BEAM-1                                          
   57         57        BEAM-1                                          
   58         58        BEAM-1                                          
   59         59        BEAM-1                                          
   60         60        BEAM-1                                          
   61         61        BEAM-1                                          
   62         62        BEAM-1                                          
   63         63        BEAM-1                                          
   64         64        BEAM-1                                          
   65         65        BEAM-1                                          
   66         66        BEAM-1                                          
   67         67        BEAM-1                                          
   68         68        BEAM-1                                          
   69         69        BEAM-1                                          
   70         70        BEAM-1                                          
   71         71        BEAM-1                                          
   72         72        BEAM-1                                          
   73         73        BEAM-1                                          
   74         74        BEAM-1                                          
   75         75        BEAM-1                                          
   76         76        BEAM-1                                          
   77         77        BEAM-1                                          
   78         78        BEAM-1                                          
   79         79        BEAM-1                                          
   80         80        BEAM-1                                          
   81         81        BEAM-1                                          
   82         82        BEAM-1                                          
   83         83        BEAM-1                                          
   84         84        BEAM-1                                          
   85         85        BEAM-1                                          
   86         86        BEAM-1                                          
   87         87        BEAM-1                                          
   88         88        BEAM-1                                          
   89         89        BEAM-1                                          
   90         90        BEAM-1                                          
   91         91        BEAM-1                                          
   92         92        BEAM-1                                          
   93         93        BEAM-1                                          
   94         94        BEAM-1                                          
   95         95        BEAM-1                                          
   96         96        BEAM-1                                          
   97         97        BEAM-1                                          
   98         98        BEAM-1                                          
   99         99        BEAM-1                                          
   100        100       BEAM-1                                          
   101        101       BEAM-1                                          
   102        102       BEAM-1                                          
   103        103       BEAM-1                                          
   104        104       BEAM-1                                          
   105        105       BEAM-1                                          
   106        106       BEAM-1                                          
   107        107       BEAM-1                                          
   108        108       BEAM-1                                          
   109        109       BEAM-1                                          
   110        110       BEAM-1                                          
   111        111       BEAM-1                                          
   112        112       BEAM-1                                          
   113        113       BEAM-1                                          
   114        114       BEAM-1                                          
   115        115       BEAM-1                                          
   116        116       BEAM-1                                          
   117        117       BEAM-1                                          
   118        118       BEAM-1                                          
   119        119       BEAM-1                                          
   120        120       BEAM-1                                          
   121        121       BEAM-1                                          
   122        122       BEAM-1                                          
   123        123       BEAM-1                                          
   124        124       BEAM-1                                          
   125        125       BEAM-1                                          
   126        126       BEAM-1                                          
   127        127       BEAM-1                                          
   128        128       BEAM-1                                          
   129        129       BEAM-1                                          
   130        130       BEAM-1                                          
   131        131       BEAM-1                                          
   132        132       BEAM-1                                          
   133        133       BEAM-1                                          
   134        134       BEAM-1                                          
   135        135       BEAM-1                                          
   136        136       BEAM-1                                          
   137        137       BEAM-1                                          
   138        138       BEAM-1                                          
   139        139       BEAM-1                                          
   140        140       BEAM-1                                          
   141        141       BEAM-1                                          
   142        142       BEAM-1                                          
   143        143       BEAM-1                                          
   144        144       BEAM-1                                          
   145        145       BEAM-1                                          
   146        146       BEAM-1                                          
   147        147       BEAM-1                                          
   148        148       BEAM-1                                          
   149        149       BEAM-1                                          
   150        150       BEAM-1                                          
   151        151       BEAM-1                                          
   152        152       BEAM-1                                          
   153        153       BEAM-1                                          
   154        154       BEAM-1                                          
   155        155       BEAM-1                                          
   156        156       BEAM-1                                          
   157        157       BEAM-1                                          
   158        158       BEAM-1                                          
   159        159       BEAM-1                                          
   160        160       BEAM-1                                          
   161        161       BEAM-1                                          
   162        162       BEAM-1                                          
   163        163       BEAM-1                                          
   164        164       BEAM-1                                          
   165        165       BEAM-1                                          
   166        166       BEAM-1                                          
   167        167       BEAM-1                                          
   168        168       BEAM-1                                          
   169        169       BEAM-1                                          
   170        170       BEAM-1                                          
   171        171       BEAM-1                                          
   172        172       BEAM-1                                          
   173        173       BEAM-1                                          
   174        174       BEAM-1                                          
   175        175       BEAM-1                                          
   176        176       BEAM-1                                          
   177        177       BEAM-1                                          
   178        178       BEAM-1                                          
   179        179       BEAM-1                                          
   180        180       BEAM-1                                          
   181        181       BEAM-1                                          
   182        182       BEAM-1                                          
   183        183       BEAM-1                                          
   184        184       BEAM-1                                          
   185        185       BEAM-1                                          
   186        186       BEAM-1                                          
   187        187       BEAM-1                                          
   188        188       BEAM-1                                          
   189        189       BEAM-1                                          
   190        190       BEAM-1                                          
   191        191       BEAM-1                                          
   192        192       BEAM-1                                          
   193        193       BEAM-1                                          
   194        194       BEAM-1                                          
   195        195       BEAM-1                                          
   196        196       BEAM-1                                          
   197        197       BEAM-1                                          
   198        198       BEAM-1                                          
   199        199       BEAM-1                                          
   200        200       BEAM-1                                          
   201        201       BEAM-1                                          
   202        202       BEAM-1                                          
   203        203       BEAM-1                                          
   204        204       BEAM-1                                          
   205        205       BEAM-1                                          
   206        206       BEAM-1                                          
   207        207       BEAM-1                                          
   208        208       BEAM-1                                          
   209        209       BEAM-1                                          
   210        210       BEAM-1                                          
   211        211       BEAM-1                                          
   212        212       BEAM-1                                          
   213        213       BEAM-1                                          
   214        214       BEAM-1                                          
   215        215       BEAM-1                                          
   216        216       BEAM-1                                          
   217        217       BEAM-1                                          
   218        218       BEAM-1                                          
   219        219       BEAM-1                                          
   220        220       BEAM-1                                          
   221        221       BEAM-1                                          
   222        222       BEAM-1                                          
   223        223       BEAM-1                                          
   224        224       BEAM-1                                          
   225        225       BEAM-1                                          
   226        226       BEAM-1                                          
   227        227       BEAM-1                                          
   228        228       BEAM-1                                          
   229        229       BEAM-1                                          
   230        230       BEAM-1                                          
   231        231       BEAM-1                                          
   232        232       BEAM-1                                          
   233        233       BEAM-1                                          
   234        234       BEAM-1                                          
   235        235       BEAM-1                                          
   236        236       BEAM-1                                          
   237        237       BEAM-1                                          
   238        238       BEAM-1                                          
   239        239       BEAM-1                                          
   240        240       BEAM-1                                          
   241        241       BEAM-1                                          
   242        242       BEAM-1                                          
   243        243       BEAM-1                                          
   244        244       BEAM-1                                          
   245        245       BEAM-1                                          
   246        246       BEAM-1                                          
   247        247       BEAM-1                                          
   248        248       BEAM-1                                          
   249        249       BEAM-1                                          
   250        250       BEAM-1                                          
   251        251       BEAM-1                                          
   252        252       BEAM-1                                          
   253        253       BEAM-1                                          
   254        254       BEAM-1                                          
   255        255       BEAM-1                                          
   256        256       BEAM-1                                          
   257        257       BEAM-1                                          
   258        258       BEAM-1                                          
   259        259       BEAM-1                                          
   260        260       BEAM-1                                          
   261        261       BEAM-1                                          
   262        262       BEAM-1                                          
   263        263       BEAM-1                                          
   264        264       BEAM-1                                          
   265        265       BEAM-1                                          
   266        266       BEAM-1                                          
   267        267       BEAM-1                                          
   268        268       BEAM-1                                          
   269        269       BEAM-1                                          
   270        270       BEAM-1                                          
   271        271       BEAM-1                                          
   272        272       BEAM-1                                          
   273        273       BEAM-1                                          
   274        274       BEAM-1                                          
   275        275       BEAM-1                                          
   276        276       BEAM-1                                          
   277        277       BEAM-1                                          
   278        278       BEAM-1                                          
   279        279       BEAM-1                                          
   280        280       BEAM-1                                          
   281        281       BEAM-1                                          
   282        282       BEAM-1                                          
   283        283       BEAM-1                                          
   284        284       BEAM-1                                          
   285        285       BEAM-1                                          
   286        286       BEAM-1                                          
   287        287       BEAM-1                                          
   288        288       BEAM-1                                          
   289        289       BEAM-1                                          
   290        290       BEAM-1                                          
   291        291       BEAM-1                                          
   292        292       BEAM-1                                          
   293        293       BEAM-1                                          
   294        294       BEAM-1                                          
   295        295       BEAM-1                                          
   296        296       BEAM-1                                          
   297        297       BEAM-1                                          
   298        298       BEAM-1                                          
   299        299       BEAM-1                                          
   300        300       BEAM-1                                          
   301        301       BEAM-1                                          
   302        302       BEAM-1                                          
   303        303       BEAM-1                                          
   304        304       BEAM-1                                          
   305        305       BEAM-1                                          
   306        306       BEAM-1                                          
   307        307       BEAM-1                                          
   308        308       BEAM-1                                          
   309        309       BEAM-1                                          
   310        310       BEAM-1                                          
   311        311       BEAM-1                                          
   312        312       BEAM-1                                          
   313        313       BEAM-1                                          
   314        314       BEAM-1                                          
   315        315       BEAM-1                                          
   316        316       BEAM-1                                          
   317        317       BEAM-1                                          
   318        318       BEAM-1                                          
   319        319       BEAM-1                                          
   320        320       BEAM-1                                          
   321        321       BEAM-1                                          
   322        322       BEAM-1                                          
   323        323       BEAM-1                                          
   324        324       BEAM-1                                          
   325        325       BEAM-1                                          
   326        326       BEAM-1                                          
   327        327       BEAM-1                                          
   328        328       BEAM-1                                          
   329        329       BEAM-1                                          
   330        330       BEAM-1                                          
   331        331       BEAM-1                                          
   332        332       BEAM-1                                          
   333        333       BEAM-1                                          
   334        334       BEAM-1                                          
   335        335       BEAM-1                                          
   336        336       BEAM-1                                          
   337        337       BEAM-1                                          
   338        338       BEAM-1                                          
   339        339       BEAM-1                                          
   340        340       BEAM-1                                          
   341        341       BEAM-1                                          
   342        342       BEAM-1                                          
   343        343       BEAM-1                                          
   344        344       BEAM-1                                          
   345        345       BEAM-1                                          
   346        346       BEAM-1                                          
   347        347       BEAM-1                                          
   348        348       BEAM-1                                          
   349        349       BEAM-1                                          
   350        350       BEAM-1                                          
   351        351       BEAM-1                                          
   352        352       BEAM-1                                          
   353        353       BEAM-1                                          
   354        354       BEAM-1                                          
   355        355       BEAM-1                                          
   356        356       BEAM-1                                          
   357        357       BEAM-1                                          
   358        358       BEAM-1                                          
   359        359       BEAM-1                                          
   360        360       BEAM-1                                          
   361        361       BEAM-1                                          
   362        362       BEAM-1                                          
   363        363       BEAM-1                                          
   364        364       BEAM-1                                          
   365        365       BEAM-1                                          
   366        366       BEAM-1                                          
   367        367       BEAM-1                                          
   368        368       BEAM-1                                          
   369        369       BEAM-1                                          
   370        370       BEAM-1                                          
   371        371       BEAM-1                                          
   372        372       BEAM-1                                          
   373        373       BEAM-1                                          
   374        374       BEAM-1                                          
   375        375       BEAM-1                                          
   376        376       BEAM-1                                          
   377        377       BEAM-1                                          
   378        378       BEAM-1                                          
   379        379       BEAM-1                                          
   380        380       BEAM-1                                          
   381        381       BEAM-1                                          
   382        382       BEAM-1                                          
   383        383       BEAM-1                                          
   384        384       BEAM-1                                          
   385        385       BEAM-1                                          
   386        386       BEAM-1                                          
   387        387       BEAM-1                                          
   388        388       BEAM-1                                          
   389        389       BEAM-1                                          
   390        390       BEAM-1                                          
   391        391       BEAM-1                                          
   392        392       BEAM-1                                          
   393        393       BEAM-1                                          
   394        394       BEAM-1                                          
   395        395       BEAM-1                                          
   396        396       BEAM-1                                          
   397        397       BEAM-1                                          
   398        398       BEAM-1                                          
   399        399       BEAM-1                                          
   400        400       BEAM-1                                          
   401        401       BEAM-1                                          
   402        402       BEAM-1                                          
   403        403       BEAM-1                                          
   404        404       BEAM-1                                          
   405        405       BEAM-1                                          
   406        406       BEAM-1                                          
   407        407       BEAM-1                                          
   408        408       BEAM-1                                          
   409        409       BEAM-1                                          
   410        410       BEAM-1                                          
   411        411       BEAM-1                                          
   412        412       BEAM-1                                          
   413        413       BEAM-1                                          
   414        414       BEAM-1                                          
   415        415       BEAM-1                                          
   416        416       BEAM-1                                          
   417        417       BEAM-1                                          
   418        418       BEAM-1                                          
   419        419       BEAM-1                                          
   420        420       BEAM-1                                          
   421        421       BEAM-1                                          
   422        422       BEAM-1                                          
   423        423       BEAM-1                                          
   424        424       BEAM-1                                          
   425        425       BEAM-1                                          
   426        426       BEAM-1                                          
   427        427       BEAM-1                                          
   428        428       BEAM-1                                          
   429        429       BEAM-1                                          
   430        430       BEAM-1                                          
   431        431       BEAM-1                                          
   432        432       BEAM-1                                          
   433        433       BEAM-1                                          
   434        434       BEAM-1                                          
   435        435       BEAM-1                                          
   436        436       BEAM-1                                          
   437        437       BEAM-1                                          
   438        438       BEAM-1                                          
   439        439       BEAM-1                                          
   440        440       BEAM-1                                          
   441        441       BEAM-1                                          
   442        442       BEAM-1                                          
   443        443       BEAM-1                                          
   444        444       BEAM-1                                          
   445        445       BEAM-1                                          
   446        446       BEAM-1                                          
   447        447       BEAM-1                                          
   448        448       BEAM-1                                          
   449        449       BEAM-1                                          
   450        450       BEAM-1                                          
   451        451       BEAM-1                                          
   452        452       BEAM-1                                          
   453        453       BEAM-1                                          
   454        454       BEAM-1                                          
   455        455       BEAM-1                                          
   456        456       BEAM-1                                          
   457        457       BEAM-1                                          
   458        458       BEAM-1                                          
   459        459       BEAM-1                                          
   460        460       BEAM-1                                          
   461        461       BEAM-1                                          
   462        462       BEAM-1                                          
   463        463       BEAM-1                                          
   464        464       BEAM-1                                          
   465        465       BEAM-1                                          
   466        466       BEAM-1                                          
   467        467       BEAM-1                                          
   468        468       BEAM-1                                          
   469        469       BEAM-1                                          
   470        470       BEAM-1                                          
   471        471       BEAM-1                                          
   472        472       BEAM-1                                          
   473        473       BEAM-1                                          
   474        474       BEAM-1                                          
   475        475       BEAM-1                                          
   476        476       BEAM-1                                          
   477        477       BEAM-1                                          
   478        478       BEAM-1                                          
   479        479       BEAM-1                                          
   480        480       BEAM-1                                          
   481        481       BEAM-1                                          
   482        482       BEAM-1                                          
   483        483       BEAM-1                                          
   484        484       BEAM-1                                          
   485        485       BEAM-1                                          
   486        486       BEAM-1                                          
   487        487       BEAM-1                                          
   488        488       BEAM-1                                          
   489        489       BEAM-1                                          
   490        490       BEAM-1                                          
   491        491       BEAM-1                                          
   492        492       BEAM-1                                          
   493        493       BEAM-1                                          
   494        494       BEAM-1                                          
   495        495       BEAM-1                                          
   496        496       BEAM-1                                          
   497        497       BEAM-1                                          
   498        498       BEAM-1                                          
   499        499       BEAM-1                                          
   500        500       BEAM-1                                          
   501        501       BEAM-1                                          
   502        502       BEAM-1                                          
   503        503       BEAM-1                                          
   504        504       BEAM-1                                          
   505        505       BEAM-1                                          
   506        506       BEAM-1                                          
   507        507       BEAM-1                                          
   508        508       BEAM-1                                          
   509        509       BEAM-1                                          
   510        510       BEAM-1                                          
   511        511       BEAM-1                                          
   512        512       BEAM-1                                          
   513        513       BEAM-1                                          
   514        514       BEAM-1                                          
   515        515       BEAM-1                                          
   516        516       BEAM-1                                          
   517        517       BEAM-1                                          

  Global     Local      
  element    element    
  number     number     
                        Instance name                                   
   1          1         BEAM-1                                          
   2          2         BEAM-1                                          
   3          3         BEAM-1                                          
   4          4         BEAM-1                                          
   5          5         BEAM-1                                          
   6          6         BEAM-1                                          
   7          7         BEAM-1                                          
   8          8         BEAM-1                                          
   9          9         BEAM-1                                          
   10         10        BEAM-1                                          
   11         11        BEAM-1                                          
   12         12        BEAM-1                                          
   13         13        BEAM-1                                          
   14         14        BEAM-1                                          
   15         15        BEAM-1                                          
   16         16        BEAM-1                                          
   17         17        BEAM-1                                          
   18         18        BEAM-1                                          
   19         19        BEAM-1                                          
   20         20        BEAM-1                                          
   21         21        BEAM-1                                          
   22         22        BEAM-1                                          
   23         23        BEAM-1                                          
   24         24        BEAM-1                                          
   25         25        BEAM-1                                          
   26         26        BEAM-1                                          
   27         27        BEAM-1                                          
   28         28        BEAM-1                                          
   29         29        BEAM-1                                          
   30         30        BEAM-1                                          
   31         31        BEAM-1                                          
   32         32        BEAM-1                                          
   33         33        BEAM-1                                          
   34         34        BEAM-1                                          
   35         35        BEAM-1                                          
   36         36        BEAM-1                                          
   37         37        BEAM-1                                          
   38         38        BEAM-1                                          
   39         39        BEAM-1                                          
   40         40        BEAM-1                                          
   41         41        BEAM-1                                          
   42         42        BEAM-1                                          
   43         43        BEAM-1                                          
   44         44        BEAM-1                                          
   45         45        BEAM-1                                          
   46         46        BEAM-1                                          
   47         47        BEAM-1                                          
   48         48        BEAM-1                                          
   49         49        BEAM-1                                          
   50         50        BEAM-1                                          
   51         51        BEAM-1                                          
   52         52        BEAM-1                                          
   53         53        BEAM-1                                          
   54         54        BEAM-1                                          
   55         55        BEAM-1                                          
   56         56        BEAM-1                                          
   57         57        BEAM-1                                          
   58         58        BEAM-1                                          
   59         59        BEAM-1                                          
   60         60        BEAM-1                                          
   61         61        BEAM-1                                          
   62         62        BEAM-1                                          
   63         63        BEAM-1                                          
   64         64        BEAM-1                                          
   65         65        BEAM-1                                          
   66         66        BEAM-1                                          
   67         67        BEAM-1                                          
   68         68        BEAM-1                                          
   69         69        BEAM-1                                          
   70         70        BEAM-1                                          
   71         71        BEAM-1                                          
   72         72        BEAM-1                                          
   73         73        BEAM-1                                          
   74         74        BEAM-1                                          
   75         75        BEAM-1                                          
   76         76        BEAM-1                                          
   77         77        BEAM-1                                          
   78         78        BEAM-1                                          
   79         79        BEAM-1                                          
   80         80        BEAM-1                                          
   81         81        BEAM-1                                          
   82         82        BEAM-1                                          
   83         83        BEAM-1                                          
   84         84        BEAM-1                                          
   85         85        BEAM-1                                          
   86         86        BEAM-1                                          
   87         87        BEAM-1                                          
   88         88        BEAM-1                                          
   89         89        BEAM-1                                          
   90         90        BEAM-1                                          
   91         91        BEAM-1                                          
   92         92        BEAM-1                                          
   93         93        BEAM-1                                          
   94         94        BEAM-1                                          
   95         95        BEAM-1                                          
   96         96        BEAM-1                                          
   97         97        BEAM-1                                          
   98         98        BEAM-1                                          
   99         99        BEAM-1                                          
   100        100       BEAM-1                                          
   101        101       BEAM-1                                          
   102        102       BEAM-1                                          
   103        103       BEAM-1                                          
   104        104       BEAM-1                                          
   105        105       BEAM-1                                          
   106        106       BEAM-1                                          
   107        107       BEAM-1                                          
   108        108       BEAM-1                                          
   109        109       BEAM-1                                          
   110        110       BEAM-1                                          
   111        111       BEAM-1                                          
   112        112       BEAM-1                                          
   113        113       BEAM-1                                          
   114        114       BEAM-1                                          
   115        115       BEAM-1                                          
   116        116       BEAM-1                                          
   117        117       BEAM-1                                          
   118        118       BEAM-1                                          
   119        119       BEAM-1                                          
   120        120       BEAM-1                                          
   121        121       BEAM-1                                          
   122        122       BEAM-1                                          
   123        123       BEAM-1                                          
   124        124       BEAM-1                                          
   125        125       BEAM-1                                          
   126        126       BEAM-1                                          
   127        127       BEAM-1                                          
   128        128       BEAM-1                                          
   129        129       BEAM-1                                          
   130        130       BEAM-1                                          
   131        131       BEAM-1                                          
   132        132       BEAM-1                                          
   133        133       BEAM-1                                          
   134        134       BEAM-1                                          
   135        135       BEAM-1                                          
   136        136       BEAM-1                                          
   137        137       BEAM-1                                          
   138        138       BEAM-1                                          
   139        139       BEAM-1                                          
   140        140       BEAM-1                                          
   141        141       BEAM-1                                          
   142        142       BEAM-1                                          
   143        143       BEAM-1                                          
   144        144       BEAM-1                                          
   145        145       BEAM-1                                          
   146        146       BEAM-1                                          
   147        147       BEAM-1                                          
   148        148       BEAM-1                                          
   149        149       BEAM-1                                          
   150        150       BEAM-1                                          
   151        151       BEAM-1                                          
   152        152       BEAM-1                                          
   153        153       BEAM-1                                          
   154        154       BEAM-1                                          
   155        155       BEAM-1                                          
   156        156       BEAM-1                                          
   157        157       BEAM-1                                          
   158        158       BEAM-1                                          
   159        159       BEAM-1                                          
   160        160       BEAM-1                                          
   161        161       BEAM-1                                          
   162        162       BEAM-1                                          
   163        163       BEAM-1                                          
   164        164       BEAM-1                                          
   165        165       BEAM-1                                          
   166        166       BEAM-1                                          
   167        167       BEAM-1                                          
   168        168       BEAM-1                                          
   169        169       BEAM-1                                          
   170        170       BEAM-1                                          
   171        171       BEAM-1                                          
   172        172       BEAM-1                                          
   173        173       BEAM-1                                          
   174        174       BEAM-1                                          
   175        175       BEAM-1                                          
   176        176       BEAM-1                                          
   177        177       BEAM-1                                          
   178        178       BEAM-1                                          
   179        179       BEAM-1                                          
   180        180       BEAM-1                                          
   181        181       BEAM-1                                          
   182        182       BEAM-1                                          
   183        183       BEAM-1                                          
   184        184       BEAM-1                                          
   185        185       BEAM-1                                          
   186        186       BEAM-1                                          
   187        187       BEAM-1                                          
   188        188       BEAM-1                                          
   189        189       BEAM-1                                          
   190        190       BEAM-1                                          
   191        191       BEAM-1                                          
   192        192       BEAM-1                                          
   193        193       BEAM-1                                          
   194        194       BEAM-1                                          
   195        195       BEAM-1                                          
   196        196       BEAM-1                                          
   197        197       BEAM-1                                          
   198        198       BEAM-1                                          
   199        199       BEAM-1                                          
   200        200       BEAM-1                                          
   201        201       BEAM-1                                          
   202        202       BEAM-1                                          
   203        203       BEAM-1                                          
   204        204       BEAM-1                                          
   205        205       BEAM-1                                          
   206        206       BEAM-1                                          
   207        207       BEAM-1                                          
   208        208       BEAM-1                                          
   209        209       BEAM-1                                          
   210        210       BEAM-1                                          
   211        211       BEAM-1                                          
   212        212       BEAM-1                                          
   213        213       BEAM-1                                          
   214        214       BEAM-1                                          
   215        215       BEAM-1                                          
   216        216       BEAM-1                                          
   217        217       BEAM-1                                          
   218        218       BEAM-1                                          
   219        219       BEAM-1                                          
   220        220       BEAM-1                                          
   221        221       BEAM-1                                          
   222        222       BEAM-1                                          
   223        223       BEAM-1                                          
   224        224       BEAM-1                                          
   225        225       BEAM-1                                          
   226        226       BEAM-1                                          
   227        227       BEAM-1                                          
   228        228       BEAM-1                                          
   229        229       BEAM-1                                          
   230        230       BEAM-1                                          
   231        231       BEAM-1                                          
   232        232       BEAM-1                                          
   233        233       BEAM-1                                          
   234        234       BEAM-1                                          
   235        235       BEAM-1                                          
   236        236       BEAM-1                                          
   237        237       BEAM-1                                          
   238        238       BEAM-1                                          
   239        239       BEAM-1                                          
   240        240       BEAM-1                                          
   241        241       BEAM-1                                          
   242        242       BEAM-1                                          
   243        243       BEAM-1                                          
   244        244       BEAM-1                                          
   245        245       BEAM-1                                          
   246        246       BEAM-1                                          
   247        247       BEAM-1                                          
   248        248       BEAM-1                                          
   249        249       BEAM-1                                          
   250        250       BEAM-1                                          
   251        251       BEAM-1                                          
   252        252       BEAM-1                                          
   253        253       BEAM-1                                          
   254        254       BEAM-1                                          
   255        255       BEAM-1                                          
   256        256       BEAM-1                                          
   257        257       BEAM-1                                          
   258        258       BEAM-1                                          
   259        259       BEAM-1                                          
   260        260       BEAM-1                                          
   261        261       BEAM-1                                          
   262        262       BEAM-1                                          
   263        263       BEAM-1                                          
   264        264       BEAM-1                                          
   265        265       BEAM-1                                          
   266        266       BEAM-1                                          
   267        267       BEAM-1                                          
   268        268       BEAM-1                                          
   269        269       BEAM-1                                          
   270        270       BEAM-1                                          
   271        271       BEAM-1                                          
   272        272       BEAM-1                                          
   273        273       BEAM-1                                          
   274        274       BEAM-1                                          
   275        275       BEAM-1                                          
   276        276       BEAM-1                                          
   277        277       BEAM-1                                          
   278        278       BEAM-1                                          
   279        279       BEAM-1                                          
   280        280       BEAM-1                                          
   281        281       BEAM-1                                          
   282        282       BEAM-1                                          
   283        283       BEAM-1                                          
   284        284       BEAM-1                                          
   285        285       BEAM-1                                          
   286        286       BEAM-1                                          
   287        287       BEAM-1                                          
   288        288       BEAM-1                                          
   289        289       BEAM-1                                          
   290        290       BEAM-1                                          
   291        291       BEAM-1                                          
   292        292       BEAM-1                                          
   293        293       BEAM-1                                          
   294        294       BEAM-1                                          
   295        295       BEAM-1                                          
   296        296       BEAM-1                                          
   297        297       BEAM-1                                          
   298        298       BEAM-1                                          
   299        299       BEAM-1                                          
   300        300       BEAM-1                                          
   301        301       BEAM-1                                          
   302        302       BEAM-1                                          
   303        303       BEAM-1                                          
   304        304       BEAM-1                                          
   305        305       BEAM-1                                          
   306        306       BEAM-1                                          
   307        307       BEAM-1                                          
   308        308       BEAM-1                                          
   309        309       BEAM-1                                          
   310        310       BEAM-1                                          
   311        311       BEAM-1                                          
   312        312       BEAM-1                                          
   313        313       BEAM-1                                          
   314        314       BEAM-1                                          
   315        315       BEAM-1                                          
   316        316       BEAM-1                                          
   317        317       BEAM-1                                          
   318        318       BEAM-1                                          
   319        319       BEAM-1                                          
   320        320       BEAM-1                                          
   321        321       BEAM-1                                          
   322        322       BEAM-1                                          
   323        323       BEAM-1                                          
   324        324       BEAM-1                                          
   325        325       BEAM-1                                          
   326        326       BEAM-1                                          
   327        327       BEAM-1                                          
   328        328       BEAM-1                                          
   329        329       BEAM-1                                          
   330        330       BEAM-1                                          
   331        331       BEAM-1                                          
   332        332       BEAM-1                                          
   333        333       BEAM-1                                          
   334        334       BEAM-1                                          
   335        335       BEAM-1                                          
   336        336       BEAM-1                                          
   337        337       BEAM-1                                          
   338        338       BEAM-1                                          
   339        339       BEAM-1                                          
   340        340       BEAM-1                                          
   341        341       BEAM-1                                          
   342        342       BEAM-1                                          
   343        343       BEAM-1                                          
   344        344       BEAM-1                                          
   345        345       BEAM-1                                          
   346        346       BEAM-1                                          
   347        347       BEAM-1                                          
   348        348       BEAM-1                                          
   349        349       BEAM-1                                          
   350        350       BEAM-1                                          
   351        351       BEAM-1                                          
   352        352       BEAM-1                                          
   353        353       BEAM-1                                          
   354        354       BEAM-1                                          
   355        355       BEAM-1                                          
   356        356       BEAM-1                                          
   357        357       BEAM-1                                          
   358        358       BEAM-1                                          
   359        359       BEAM-1                                          
   360        360       BEAM-1                                          
   361        361       BEAM-1                                          
   362        362       BEAM-1                                          
   363        363       BEAM-1                                          
   364        364       BEAM-1                                          
   365        365       BEAM-1                                          
   366        366       BEAM-1                                          
   367        367       BEAM-1                                          
   368        368       BEAM-1                                          
   369        369       BEAM-1                                          
   370        370       BEAM-1                                          
   371        371       BEAM-1                                          
   372        372       BEAM-1                                          
   373        373       BEAM-1                                          
   374        374       BEAM-1                                          
   375        375       BEAM-1                                          
   376        376       BEAM-1                                          
   377        377       BEAM-1                                          
   378        378       BEAM-1                                          
   379        379       BEAM-1                                          
   380        380       BEAM-1                                          
   381        381       BEAM-1                                          
   382        382       BEAM-1                                          
   383        383       BEAM-1                                          
   384        384       BEAM-1                                          
   385        385       BEAM-1                                          
   386        386       BEAM-1                                          
   387        387       BEAM-1                                          
[...]
        481     -1.0631E-32 -3.0094E-32 

 MAXIMUM         2.1262E-32   0.000    
 AT NODE                 9           1

 MINIMUM        -1.1449E-32  -135.9    
 AT NODE               117           9


                                INCREMENT    75 SUMMARY


 TIME INCREMENT COMPLETED  0.100    ,  FRACTION OF STEP COMPLETED  0.758    
 STEP TIME COMPLETED        7.50    ,  TOTAL TIME COMPLETED         7.50    
  
  
  
  
                                       N O D E   O U T P U T
  
  
  
  
   THE FOLLOWING TABLE IS PRINTED FOR ALL NODES
  
       NODE FOOT-   U1          U2       
            NOTE
  
          9      2.2192E-32  -137.8     
        117     -1.1949E-32 -1.2989E-32 
        118     -1.0242E-32 -1.2989E-32 
        472      1.1096E-32   0.000     
        481     -1.1096E-32 -3.1410E-32 

 MAXIMUM         2.2192E-32   0.000    
 AT NODE                 9           1

 MINIMUM        -1.1949E-32  -137.8    
 AT NODE               117           9


                                INCREMENT    76 SUMMARY


 TIME INCREMENT COMPLETED  0.100    ,  FRACTION OF STEP COMPLETED  0.768    
 STEP TIME COMPLETED        7.60    ,  TOTAL TIME COMPLETED         7.60    
  
  
  
  
                                       N O D E   O U T P U T
  
  
  
  
   THE FOLLOWING TABLE IS PRINTED FOR ALL NODES
  
       NODE FOOT-   U1          U2       
            NOTE
  
          9      2.3149E-32  -139.8     
        117     -1.2465E-32 -1.3549E-32 
        118     -1.0684E-32 -1.3549E-32 
        472      1.1574E-32   0.000     
        481     -1.1574E-32 -3.2764E-32 

 MAXIMUM         2.3149E-32   0.000    
 AT NODE                 9           1

 MINIMUM        -1.2465E-32  -139.8    
 AT NODE               117           9


                                INCREMENT    77 SUMMARY


 TIME INCREMENT COMPLETED  0.100    ,  FRACTION OF STEP COMPLETED  0.778    
 STEP TIME COMPLETED        7.70    ,  TOTAL TIME COMPLETED         7.70    
  
  
  
  
                                       N O D E   O U T P U T
  
  
  
  
   THE FOLLOWING TABLE IS PRINTED FOR ALL NODES
  
       NODE FOOT-   U1          U2       
            NOTE
  
          9      2.4133E-32  -141.7     
        117     -1.2995E-32 -1.4125E-32 
        118     -1.1138E-32 -1.4125E-32 
        472      1.2066E-32   0.000     
        481     -1.2066E-32 -3.4157E-32 

 MAXIMUM         2.4133E-32   0.000    
 AT NODE                 9           1

 MINIMUM        -1.2995E-32  -141.7    
 AT NODE               117           9


                                INCREMENT    78 SUMMARY


 TIME INCREMENT COMPLETED  0.100    ,  FRACTION OF STEP COMPLETED  0.788    
 STEP TIME COMPLETED        7.80    ,  TOTAL TIME COMPLETED         7.80    
  
  
  
  
                                       N O D E   O U T P U T
  
  
  
  
   THE FOLLOWING TABLE IS PRINTED FOR ALL NODES
  
       NODE FOOT-   U1          U2       
            NOTE
  
          9      2.5144E-32  -143.7     
        117     -1.3539E-32 -1.4717E-32 
        118     -1.1605E-32 -1.4717E-32 
        472      1.2572E-32   0.000     
        481     -1.2572E-32 -3.5589E-32 

 MAXIMUM         2.5144E-32   0.000    
 AT NODE                 9           1

 MINIMUM        -1.3539E-32  -143.7    
 AT NODE               117           9


                                INCREMENT    79 SUMMARY


 TIME INCREMENT COMPLETED  0.100    ,  FRACTION OF STEP COMPLETED  0.798    
 STEP TIME COMPLETED        7.90    ,  TOTAL TIME COMPLETED         7.90    
  
  
  
  
                                       N O D E   O U T P U T
  
  
  
  
   THE FOLLOWING TABLE IS PRINTED FOR ALL NODES
  
       NODE FOOT-   U1          U2       
            NOTE
  
          9      2.6184E-32  -145.6     
        117     -1.4099E-32 -1.5325E-32 
        118     -1.2085E-32 -1.5325E-32 
        472      1.3092E-32   0.000     
        481     -1.3092E-32 -3.7060E-32 

 MAXIMUM         2.6184E-32   0.000    
 AT NODE                 9           1

 MINIMUM        -1.4099E-32  -145.6    
 AT NODE               117           9


                                INCREMENT    80 SUMMARY


 TIME INCREMENT COMPLETED  0.100    ,  FRACTION OF STEP COMPLETED  0.808    
 STEP TIME COMPLETED        8.00    ,  TOTAL TIME COMPLETED         8.00    
  
  
  
  
                                       N O D E   O U T P U T
  
  
  
  
   THE FOLLOWING TABLE IS PRINTED FOR ALL NODES
  
       NODE FOOT-   U1          U2       
            NOTE
  
          9      2.7251E-32  -147.6     
        117     -1.4674E-32 -1.5950E-32 
        118     -1.2578E-32 -1.5950E-32 
        472      1.3626E-32   0.000     
        481     -1.3626E-32 -3.8571E-32 

 MAXIMUM         2.7251E-32   0.000    
 AT NODE                 9           1

 MINIMUM        -1.4674E-32  -147.6    
 AT NODE               117           9


                                INCREMENT    81 SUMMARY


 TIME INCREMENT COMPLETED  0.100    ,  FRACTION OF STEP COMPLETED  0.818    
 STEP TIME COMPLETED        8.10    ,  TOTAL TIME COMPLETED         8.10    
  
  
  
  
                                       N O D E   O U T P U T
  
  
  
  
   THE FOLLOWING TABLE IS PRINTED FOR ALL NODES
  
       NODE FOOT-   U1          U2       
            NOTE
  
          9      2.8348E-32  -149.5     
        117     -1.5264E-32 -1.6591E-32 
        118     -1.3084E-32 -1.6591E-32 
        472      1.4174E-32   0.000     
        481     -1.4174E-32 -4.0123E-32 

 MAXIMUM         2.8348E-32   0.000    
 AT NODE                 9           1

 MINIMUM        -1.5264E-32  -149.5    
 AT NODE               117           9


                                INCREMENT    82 SUMMARY


 TIME INCREMENT COMPLETED  0.100    ,  FRACTION OF STEP COMPLETED  0.828    
 STEP TIME COMPLETED        8.20    ,  TOTAL TIME COMPLETED         8.20    
  
  
  
  
                                       N O D E   O U T P U T
  
  
  
  
   THE FOLLOWING TABLE IS PRINTED FOR ALL NODES
  
       NODE FOOT-   U1          U2       
            NOTE
  
          9      2.9473E-32  -151.5     
        117     -1.5870E-32 -1.7250E-32 
        118     -1.3603E-32 -1.7250E-32 
        472      1.4736E-32   0.000     
        481     -1.4736E-32 -4.1716E-32 

 MAXIMUM         2.9473E-32   0.000    
 AT NODE                 9           1

 MINIMUM        -1.5870E-32  -151.5    
 AT NODE               117           9


                                INCREMENT    83 SUMMARY


 TIME INCREMENT COMPLETED  0.100    ,  FRACTION OF STEP COMPLETED  0.838    
 STEP TIME COMPLETED        8.30    ,  TOTAL TIME COMPLETED         8.30    
  
  
  
  
                                       N O D E   O U T P U T
  
  
  
  
   THE FOLLOWING TABLE IS PRINTED FOR ALL NODES
  
       NODE FOOT-   U1          U2       
            NOTE
  
          9      3.0628E-32  -153.5     
        117     -1.6492E-32 -1.7926E-32 
        118     -1.4136E-32 -1.7926E-32 
        472      1.5314E-32   0.000     
        481     -1.5314E-32 -4.3350E-32 

 MAXIMUM         3.0628E-32   0.000    
 AT NODE                 9           1

 MINIMUM        -1.6492E-32  -153.5    
 AT NODE               117           9


                                INCREMENT    84 SUMMARY


 TIME INCREMENT COMPLETED  0.100    ,  FRACTION OF STEP COMPLETED  0.848    
 STEP TIME COMPLETED        8.40    ,  TOTAL TIME COMPLETED         8.40    
  
  
  
  
                                       N O D E   O U T P U T
  
  
  
  
   THE FOLLOWING TABLE IS PRINTED FOR ALL NODES
  
       NODE FOOT-   U1          U2       
            NOTE
  
          9      3.1812E-32  -155.4     
        117     -1.7130E-32 -1.8619E-32 
        118     -1.4683E-32 -1.8619E-32 
        472      1.5906E-32   0.000     
        481     -1.5906E-32 -4.5026E-32 

 MAXIMUM         3.1812E-32   0.000    
 AT NODE                 9           1

 MINIMUM        -1.7130E-32  -155.4    
 AT NODE               117           9


                                INCREMENT    85 SUMMARY


 TIME INCREMENT COMPLETED  0.100    ,  FRACTION OF STEP COMPLETED  0.859    
 STEP TIME COMPLETED        8.50    ,  TOTAL TIME COMPLETED         8.50    
  
  
  
  
                                       N O D E   O U T P U T
  
  
  
  
   THE FOLLOWING TABLE IS PRINTED FOR ALL NODES
  
       NODE FOOT-   U1          U2       
            NOTE
  
          9      3.3027E-32  -157.4     
        117     -1.7784E-32 -1.9330E-32 
        118     -1.5243E-32 -1.9330E-32 
        472      1.6513E-32   0.000     
        481     -1.6513E-32 -4.6746E-32 

 MAXIMUM         3.3027E-32   0.000    
 AT NODE                 9           1

 MINIMUM        -1.7784E-32  -157.4    
 AT NODE               117           9


                                INCREMENT    86 SUMMARY


 TIME INCREMENT COMPLETED  0.100    ,  FRACTION OF STEP COMPLETED  0.869    
 STEP TIME COMPLETED        8.60    ,  TOTAL TIME COMPLETED         8.60    
  
  
  
  
                                       N O D E   O U T P U T
  
  
  
  
   THE FOLLOWING TABLE IS PRINTED FOR ALL NODES
  
       NODE FOOT-   U1          U2       
            NOTE
  
          9      3.4272E-32  -159.3     
        117     -1.8454E-32 -2.0059E-32 
        118     -1.5818E-32 -2.0059E-32 
        472      1.7136E-32   0.000     
        481     -1.7136E-32 -4.8508E-32 

 MAXIMUM         3.4272E-32   0.000    
 AT NODE                 9           1

 MINIMUM        -1.8454E-32  -159.3    
 AT NODE               117           9


                                INCREMENT    87 SUMMARY


 TIME INCREMENT COMPLETED  0.100    ,  FRACTION OF STEP COMPLETED  0.879    
 STEP TIME COMPLETED        8.70    ,  TOTAL TIME COMPLETED         8.70    
  
  
  
  
                                       N O D E   O U T P U T
  
  
  
  
   THE FOLLOWING TABLE IS PRINTED FOR ALL NODES
  
       NODE FOOT-   U1          U2       
            NOTE
  
          9      3.5548E-32  -161.3     
        117     -1.9141E-32 -2.0806E-32 
        118     -1.6407E-32 -2.0806E-32 
        472      1.7774E-32   0.000     
        481     -1.7774E-32 -5.0314E-32 

 MAXIMUM         3.5548E-32   0.000    
 AT NODE                 9           1

 MINIMUM        -1.9141E-32  -161.3    
 AT NODE               117           9


                                INCREMENT    88 SUMMARY


 TIME INCREMENT COMPLETED  0.100    ,  FRACTION OF STEP COMPLETED  0.889    
 STEP TIME COMPLETED        8.80    ,  TOTAL TIME COMPLETED         8.80    
  
  
  
  
                                       N O D E   O U T P U T
  
  
  
  
   THE FOLLOWING TABLE IS PRINTED FOR ALL NODES
  
       NODE FOOT-   U1          U2       
            NOTE
  
          9      3.6856E-32  -163.2     
        117     -1.9845E-32 -2.1571E-32 
        118     -1.7010E-32 -2.1571E-32 
        472      1.8428E-32   0.000     
        481     -1.8428E-32 -5.2165E-32 

 MAXIMUM         3.6856E-32   0.000    
 AT NODE                 9           1

 MINIMUM        -1.9845E-32  -163.2    
 AT NODE               117           9


                                INCREMENT    89 SUMMARY


 TIME INCREMENT COMPLETED  0.100    ,  FRACTION OF STEP COMPLETED  0.899    
 STEP TIME COMPLETED        8.90    ,  TOTAL TIME COMPLETED         8.90    
  
  
  
  
                                       N O D E   O U T P U T
  
  
  
  
   THE FOLLOWING TABLE IS PRINTED FOR ALL NODES
  
       NODE FOOT-   U1          U2       
            NOTE
  
          9      3.8195E-32  -165.2     
        117     -2.0566E-32 -2.2355E-32 
        118     -1.7628E-32 -2.2355E-32 
        472      1.9097E-32   0.000     
        481     -1.9097E-32 -5.4060E-32 

 MAXIMUM         3.8195E-32   0.000    
 AT NODE                 9           1

 MINIMUM        -2.0566E-32  -165.2    
 AT NODE               117           9


                                INCREMENT    90 SUMMARY


 TIME INCREMENT COMPLETED  0.100    ,  FRACTION OF STEP COMPLETED  0.909    
 STEP TIME COMPLETED        9.00    ,  TOTAL TIME COMPLETED         9.00    
  
  
  
  
                                       N O D E   O U T P U T
  
  
  
  
   THE FOLLOWING TABLE IS PRINTED FOR ALL NODES
  
       NODE FOOT-   U1          U2       
            NOTE
  
          9      3.9566E-32  -167.1     
        117     -2.1305E-32 -2.3157E-32 
        118     -1.8261E-32 -2.3157E-32 
        472      1.9783E-32   0.000     
        481     -1.9783E-32 -5.6001E-32 

 MAXIMUM         3.9566E-32   0.000    
 AT NODE                 9           1

 MINIMUM        -2.1305E-32  -167.1    
 AT NODE               117           9


                                INCREMENT    91 SUMMARY


 TIME INCREMENT COMPLETED  0.100    ,  FRACTION OF STEP COMPLETED  0.919    
 STEP TIME COMPLETED        9.10    ,  TOTAL TIME COMPLETED         9.10    
  
  
  
  
                                       N O D E   O U T P U T
  
  
  
  
   THE FOLLOWING TABLE IS PRINTED FOR ALL NODES
  
       NODE FOOT-   U1          U2       
            NOTE
  
          9      4.0970E-32  -169.1     
        117     -2.2061E-32 -2.3979E-32 
        118     -1.8909E-32 -2.3979E-32 
        472      2.0485E-32   0.000     
        481     -2.0485E-32 -5.7988E-32 

 MAXIMUM         4.0970E-32   0.000    
 AT NODE                 9           1

 MINIMUM        -2.2061E-32  -169.1    
 AT NODE               117           9


                                INCREMENT    92 SUMMARY


 TIME INCREMENT COMPLETED  0.100    ,  FRACTION OF STEP COMPLETED  0.929    
 STEP TIME COMPLETED        9.20    ,  TOTAL TIME COMPLETED         9.20    
  
  
  
  
                                       N O D E   O U T P U T
  
  
  
  
   THE FOLLOWING TABLE IS PRINTED FOR ALL NODES
  
       NODE FOOT-   U1          U2       
            NOTE
  
          9      4.2406E-32  -171.1     
        117     -2.2834E-32 -2.4820E-32 
        118     -1.9572E-32 -2.4820E-32 
        472      2.1203E-32   0.000     
        481     -2.1203E-32 -6.0021E-32 

 MAXIMUM         4.2406E-32   0.000    
 AT NODE                 9           1

 MINIMUM        -2.2834E-32  -171.1    
 AT NODE               117           9


                                INCREMENT    93 SUMMARY


 TIME INCREMENT COMPLETED  0.100    ,  FRACTION OF STEP COMPLETED  0.939    
 STEP TIME COMPLETED        9.30    ,  TOTAL TIME COMPLETED         9.30    
  
  
  
  
                                       N O D E   O U T P U T
  
  
  
  
   THE FOLLOWING TABLE IS PRINTED FOR ALL NODES
  
       NODE FOOT-   U1          U2       
            NOTE
  
          9      4.3876E-32  -173.0     
        117     -2.3625E-32 -2.5680E-32 
        118     -2.0250E-32 -2.5680E-32 
        472      2.1938E-32   0.000     
        481     -2.1938E-32 -6.2101E-32 

 MAXIMUM         4.3876E-32   0.000    
 AT NODE                 9           1

 MINIMUM        -2.3625E-32  -173.0    
 AT NODE               117           9


                                INCREMENT    94 SUMMARY


 TIME INCREMENT COMPLETED  0.100    ,  FRACTION OF STEP COMPLETED  0.949    
 STEP TIME COMPLETED        9.40    ,  TOTAL TIME COMPLETED         9.40    
  
  
  
  
                                       N O D E   O U T P U T
  
  
  
  
   THE FOLLOWING TABLE IS PRINTED FOR ALL NODES
  
       NODE FOOT-   U1          U2       
            NOTE
  
          9      4.5379E-32  -175.0     
        117     -2.4435E-32 -2.6560E-32 
        118     -2.0944E-32 -2.6560E-32 
        472      2.2690E-32   0.000     
        481     -2.2690E-32 -6.4229E-32 

 MAXIMUM         4.5379E-32   0.000    
 AT NODE                 9           1

 MINIMUM        -2.4435E-32  -175.0    
 AT NODE               117           9


                                INCREMENT    95 SUMMARY


 TIME INCREMENT COMPLETED  0.100    ,  FRACTION OF STEP COMPLETED  0.960    
 STEP TIME COMPLETED        9.50    ,  TOTAL TIME COMPLETED         9.50    
  
  
  
  
                                       N O D E   O U T P U T
  
  
  
  
   THE FOLLOWING TABLE IS PRINTED FOR ALL NODES
  
       NODE FOOT-   U1          U2       
            NOTE
  
          9      4.6916E-32  -176.9     
        117     -2.5263E-32 -2.7459E-32 
        118     -2.1654E-32 -2.7459E-32 
        472      2.3458E-32   0.000     
        481     -2.3458E-32 -6.6405E-32 

 MAXIMUM         4.6916E-32   0.000    
 AT NODE                 9           1

 MINIMUM        -2.5263E-32  -176.9    
 AT NODE               117           9


                                INCREMENT    96 SUMMARY


 TIME INCREMENT COMPLETED  0.100    ,  FRACTION OF STEP COMPLETED  0.970    
 STEP TIME COMPLETED        9.60    ,  TOTAL TIME COMPLETED         9.60    
  
  
  
  
                                       N O D E   O U T P U T
  
  
  
  
   THE FOLLOWING TABLE IS PRINTED FOR ALL NODES
  
       NODE FOOT-   U1          U2       
            NOTE
  
          9      4.8488E-32  -178.9     
        117     -2.6109E-32 -2.8379E-32 
        118     -2.2379E-32 -2.8379E-32 
        472      2.4244E-32   0.000     
        481     -2.4244E-32 -6.8629E-32 

 MAXIMUM         4.8488E-32   0.000    
 AT NODE                 9           1

 MINIMUM        -2.6109E-32  -178.9    
 AT NODE               117           9


                                INCREMENT    97 SUMMARY


 TIME INCREMENT COMPLETED  0.100    ,  FRACTION OF STEP COMPLETED  0.980    
 STEP TIME COMPLETED        9.70    ,  TOTAL TIME COMPLETED         9.70    
  
  
  
  
                                       N O D E   O U T P U T
  
  
  
  
   THE FOLLOWING TABLE IS PRINTED FOR ALL NODES
  
       NODE FOOT-   U1          U2       
            NOTE
  
          9      5.0094E-32  -180.8     
        117     -2.6974E-32 -2.9319E-32 
        118     -2.3120E-32 -2.9319E-32 
        472      2.5047E-32   0.000     
        481     -2.5047E-32 -7.0903E-32 

 MAXIMUM         5.0094E-32   0.000    
 AT NODE                 9           1

 MINIMUM        -2.6974E-32  -180.8    
 AT NODE               117           9


                                INCREMENT    98 SUMMARY


 TIME INCREMENT COMPLETED  0.100    ,  FRACTION OF STEP COMPLETED  0.990    
 STEP TIME COMPLETED        9.80    ,  TOTAL TIME COMPLETED         9.80    
  
  
  
  
                                       N O D E   O U T P U T
  
  
  
  
   THE FOLLOWING TABLE IS PRINTED FOR ALL NODES
  
       NODE FOOT-   U1          U2       
            NOTE
  
          9      5.1736E-32  -182.8     
        117     -2.7858E-32 -3.0280E-32 
        118     -2.3878E-32 -3.0280E-32 
        472      2.5868E-32   0.000     
        481     -2.5868E-32 -7.3226E-32 

 MAXIMUM         5.1736E-32   0.000    
 AT NODE                 9           1

 MINIMUM        -2.7858E-32  -182.8    
 AT NODE               117           9


                                INCREMENT    99 SUMMARY


 TIME INCREMENT COMPLETED  0.100    ,  FRACTION OF STEP COMPLETED   1.00    
 STEP TIME COMPLETED        9.90    ,  TOTAL TIME COMPLETED         9.90    
  
  
  
  
                                       N O D E   O U T P U T
  
  
  
  
   THE FOLLOWING TABLE IS PRINTED FOR ALL NODES
  
       NODE FOOT-   U1          U2       
            NOTE
  
          9      5.3412E-32  -184.7     
        117     -2.8761E-32 -3.1261E-32 
        118     -2.4652E-32 -3.1261E-32 
        472      2.6706E-32   0.000     
        481     -2.6706E-32 -7.5599E-32 

 MAXIMUM         5.3412E-32   0.000    
 AT NODE                 9           1

 MINIMUM        -2.8761E-32  -184.7    
 AT NODE               117           9


          THE ANALYSIS HAS BEEN COMPLETED



                              ANALYSIS COMPLETE
                              WITH      2 WARNING MESSAGES ON THE DAT FILE



     JOB TIME SUMMARY
       USER TIME (SEC)      =   8.6200    
       SYSTEM TIME (SEC)    =  0.19000    
       TOTAL CPU TIME (SEC) =   8.8100    
       WALLCLOCK TIME (SEC) =          9
