1

   Abaqus 6.14-1                                  Date 23-Jun-2018   Time 20:43:49
   For use at CARDIFF UNIVERSITY under license from Dassault Systemes or its subsidiary.



                         The Abaqus Software is a product of:

                           Dassault Systemes Simulia Corp.
                                 Rising Sun Mills
                                 166 Valley Street
                           Providence, RI 02909-2499, USA
 


                   Available for internal use at CARDIFF UNIVERSITY. 
                   The Abaqus Online Support System is accessible
                   through the "My Support" section of the SIMULIA
                   Home Page at http://www.simulia.com.

                   Support policies for academic licenses are described
                   on the SIMULIA web site at
                   http://www.3ds.com/products/simulia/academics/
 
                          On machine xiaohan 
                          you are authorized to run
                          Abaqus/Standard until 12-Sep-2018

                          Your site id is: 200000000040428 


 
                    For assistance or any other information you may
                    obtain contact information for your local office
                    from the world wide web at:

                      http://www.3ds.com/products/simulia/locations/

 
                * * * * * * * * * * * * * * * * * * * * * * * * * * * * * * 
                *                                                         * 
                *                   *****************                     * 
                *                   *  N O T I C E  *                     * 
                *                   *****************                     * 
                *                                                         * 
                *                                                         * 
                *                    Abaqus 6.14-1                        * 
                *                                                         * 
                *          BUILD ID: 2014_06_04-20.37.49 134264           * 
                *                                                         * 
                *                                                         * 
                *  Please make sure you are using release 6.14 manuals    * 
                *  plus the notes accompanying this release.              * 
                *                                                         * 
                *                                                         * 
                *                                                         * 
                *                                                         * 
                *                                                         * 
                *   This program may not be used for commercial purposes  * 
                *           without payment of a commercial fee.          * 
                *                                                         * 
                * * * * * * * * * * * * * * * * * * * * * * * * * * * * * * 


 



     PROCESSING PART, INSTANCE, AND ASSEMBLY INFORMATION
   *******************************************************


     END PROCESSING PART, INSTANCE, AND ASSEMBLY INFORMATION
   ***********************************************************




     OPTIONS BEING PROCESSED
   ***************************


  *Heading
  *Node
  *Element, type=CPS3
  *Nset, nset=ASSEMBLY_BEAM-1_SET-I1
  *Nset, nset=ASSEMBLY_BEAM-1_SET-S
  *Elset, elset=ASSEMBLY_BEAM-1_SET-I1
  *Elset, elset=ASSEMBLY_BEAM-1_SET-S
  *Nset, nset=ASSEMBLY_SET-AF
  *Nset, nset=ASSEMBLY_SET-LC
  *Nset, nset=ASSEMBLY_SET-RC
  *Elset, elset=ASSEMBLY_SET-LC
  *Elset, elset=ASSEMBLY_SET-RC
  *material, name=MATERIAL-I1
  *density
  *elastic
  *material, name=MATERIAL-S
  *density
  *elastic
  *solidsection, elset=ASSEMBLY_BEAM-1_SET-S, material=MATERIAL-S
  *solidsection, elset=ASSEMBLY_BEAM-1_SET-I1, material=MATERIAL-I1
  *solidsection, elset=ASSEMBLY_BEAM-1_SET-S, material=MATERIAL-S
  *solidsection, elset=ASSEMBLY_BEAM-1_SET-I1, material=MATERIAL-I1
  *output, field, variable=PRESELECT, frequency=1
  *output, history, variable=PRESELECT, frequency=1
  *output, field, variable=PRESELECT, frequency=1
  *output, history, variable=PRESELECT, frequency=1
  *output, field, variable=PRESELECT, frequency=1
  *output, history, variable=PRESELECT, frequency=1
  *amplitude, name=AMP-AF
  *Step, name=exportmatrix
  *Step, name=Step-af, inc=10000
  *output, field, variable=PRESELECT, frequency=1
  *output, history, variable=PRESELECT, frequency=1
  *Step, name=exportmatrix
  *Step, name=Step-af, inc=10000
  *Step, name=exportmatrix
  *matrixgenerate, stiffness, mass
  *matrixoutput, stiffness, format=MATRIXINPUT, mass
  *endstep
  *Step, name=Step-af, inc=10000
  *dynamic, alpha=0, directusercontrol
  *boundary
  *boundary
  *output, field, variable=PRESELECT, frequency=1
  *output, history, variable=PRESELECT, frequency=1
  *nodeprint
  *endstep
  *Step, name=exportmatrix
  *endstep
  *Step, name=Step-af, inc=10000
  *dynamic, alpha=0, directusercontrol
  *boundary

 ***WARNING: DEGREE OF FREEDOM 6 IS NOT ACTIVE IN THIS MODEL AND CANNOT BE 
             RESTRAINED.
  *boundary

 ***WARNING: DEGREE OF FREEDOM 6 IS NOT ACTIVE IN THIS MODEL AND CANNOT BE 
             RESTRAINED.
  *cload, amplitude=AMP-AF
  *endstep


                              E L E M E N T,   N O D E,   A N D   S U R F A C E   M A P S


**NOTE: This section may not include complete information about
        members of sets and surfaces. Use *PREPRINT, MODEL=YES 
        in order to get the set and surface members printed    
        under the following sections:                          
            - E L E M E N T   S E T S                          
            - N O D E   S E T S                                
            - S U R F A C E   D E F I N I T I O N S .          


Assembly name: ASSEMBLY
Number of instances: 1

ASSEMBLY LEVEL
  node sets:
    SET-AF:
      instance name: BEAM-1
      number of nodes: 1
      nodes: 
        9

    SET-LC:
      instance name: BEAM-1
      number of nodes: 11
      nodes: 
        3 4 36 37 38 39 40 41 42 43 44

    SET-RC:
      instance name: BEAM-1
      number of nodes: 11
      nodes: 
        7 8 88 89 90 91 92 93 94 95 96

  element sets:
    SET-LC:
      instance name: BEAM-1
      number of elements: 10
      elements: 
        342 344 346 348 350 352 354 356 358 360

    SET-RC:
      instance name: BEAM-1
      number of elements: 10
      elements: 
        702 704 706 708 710 712 714 716 718 720

  Surfaces:

INSTANCE LEVEL
  node sets:
    Instance name: BEAM-1
      node set name: SET-I1
        number of nodes: 121
        nodes: 
          1 2 5 6 9 10 11 12 13 14 15 16 17 18 62 63 64 65 66 67 68 69
          70 114 115 116 117 118 119 120 121 122 123 124 125 126 127 128
          129 130 437 438 439 440 441 442 443 444 445 446 447 448 449
          450 451 452 453 454 455 456 457 458 459 460 461 462 463 464
          465 466 467 468 469 470 471 472 473 474 475 476 477 478 479
          480 481 482 483 484 485 486 487 488 489 490 491 492 493 494
          495 496 497 498 499 500 501 502 503 504 505 506 507 508 509
          510 511 512 513 514 515 516 517
      node set name: SET-S
        number of nodes: 418
        nodes: 
          1 2 3 4 5 6 7 8 10 11 12 13 14 15 16 17 18 19 20 21 22 23 24
          25 26 27 28 29 30 31 32 33 34 35 36 37 38 39 40 41 42 43 44 45
          46 47 48 49 50 51 52 53 54 55 56 57 58 59 60 61 62 63 64 65 66
          67 68 69 70 71 72 73 74 75 76 77 78 79 80 81 82 83 84 85 86 87
          88 89 90 91 92 93 94 95 96 97 98 99 100 101 102 103 104 105
          106 107 108 109 110 111 112 113 131 132 133 134 135 136 137
          138 139 140 141 142 143 144 145 146 147 148 149 150 151 152
          153 154 155 156 157 158 159 160 161 162 163 164 165 166 167
          168 169 170 171 172 173 174 175 176 177 178 179 180 181 182
          183 184 185 186 187 188 189 190 191 192 193 194 195 196 197
          198 199 200 201 202 203 204 205 206 207 208 209 210 211 212
          213 214 215 216 217 218 219 220 221 222 223 224 225 226 227
          228 229 230 231 232 233 234 235 236 237 238 239 240 241 242
          243 244 245 246 247 248 249 250 251 252 253 254 255 256 257
          258 259 260 261 262 263 264 265 266 267 268 269 270 271 272
          273 274 275 276 277 278 279 280 281 282 283 284 285 286 287
          288 289 290 291 292 293 294 295 296 297 298 299 300 301 302
          303 304 305 306 307 308 309 310 311 312 313 314 315 316 317
          318 319 320 321 322 323 324 325 326 327 328 329 330 331 332
          333 334 335 336 337 338 339 340 341 342 343 344 345 346 347
          348 349 350 351 352 353 354 355 356 357 358 359 360 361 362
          363 364 365 366 367 368 369 370 371 372 373 374 375 376 377
          378 379 380 381 382 383 384 385 386 387 388 389 390 391 392
          393 394 395 396 397 398 399 400 401 402 403 404 405 406 407
          408 409 410 411 412 413 414 415 416 417 418 419 420 421 422
          423 424 425 426 427 428 429 430 431 432 433 434 435 436

  element sets:
    Instance name: BEAM-1
      element set name: SET-I1
        number of elements: 200
        elements: 
          721 722 723 724 725 726 727 728 729 730 731 732 733 734 735
          736 737 738 739 740 741 742 743 744 745 746 747 748 749 750
          751 752 753 754 755 756 757 758 759 760 761 762 763 764 765
          766 767 768 769 770 771 772 773 774 775 776 777 778 779 780
          781 782 783 784 785 786 787 788 789 790 791 792 793 794 795
          796 797 798 799 800 801 802 803 804 805 806 807 808 809 810
          811 812 813 814 815 816 817 818 819 820 821 822 823 824 825
          826 827 828 829 830 831 832 833 834 835 836 837 838 839 840
          841 842 843 844 845 846 847 848 849 850 851 852 853 854 855
          856 857 858 859 860 861 862 863 864 865 866 867 868 869 870
          871 872 873 874 875 876 877 878 879 880 881 882 883 884 885
          886 887 888 889 890 891 892 893 894 895 896 897 898 899 900
          901 902 903 904 905 906 907 908 909 910 911 912 913 914 915
          916 917 918 919 920
      element set name: SET-S
        number of elements: 720
        elements: 
          1 2 3 4 5 6 7 8 9 10 11 12 13 14 15 16 17 18 19 20 21 22 23 24
          25 26 27 28 29 30 31 32 33 34 35 36 37 38 39 40 41 42 43 44 45
          46 47 48 49 50 51 52 53 54 55 56 57 58 59 60 61 62 63 64 65 66
          67 68 69 70 71 72 73 74 75 76 77 78 79 80 81 82 83 84 85 86 87
          88 89 90 91 92 93 94 95 96 97 98 99 100 101 102 103 104 105
          106 107 108 109 110 111 112 113 114 115 116 117 118 119 120
          121 122 123 124 125 126 127 128 129 130 131 132 133 134 135
          136 137 138 139 140 141 142 143 144 145 146 147 148 149 150
          151 152 153 154 155 156 157 158 159 160 161 162 163 164 165
          166 167 168 169 170 171 172 173 174 175 176 177 178 179 180
          181 182 183 184 185 186 187 188 189 190 191 192 193 194 195
          196 197 198 199 200 201 202 203 204 205 206 207 208 209 210
          211 212 213 214 215 216 217 218 219 220 221 222 223 224 225
          226 227 228 229 230 231 232 233 234 235 236 237 238 239 240
          241 242 243 244 245 246 247 248 249 250 251 252 253 254 255
          256 257 258 259 260 261 262 263 264 265 266 267 268 269 270
          271 272 273 274 275 276 277 278 279 280 281 282 283 284 285
          286 287 288 289 290 291 292 293 294 295 296 297 298 299 300
          301 302 303 304 305 306 307 308 309 310 311 312 313 314 315
          316 317 318 319 320 321 322 323 324 325 326 327 328 329 330
          331 332 333 334 335 336 337 338 339 340 341 342 343 344 345
          346 347 348 349 350 351 352 353 354 355 356 357 358 359 360
          361 362 363 364 365 366 367 368 369 370 371 372 373 374 375
          376 377 378 379 380 381 382 383 384 385 386 387 388 389 390
          391 392 393 394 395 396 397 398 399 400 401 402 403 404 405
          406 407 408 409 410 411 412 413 414 415 416 417 418 419 420
          421 422 423 424 425 426 427 428 429 430 431 432 433 434 435
          436 437 438 439 440 441 442 443 444 445 446 447 448 449 450
          451 452 453 454 455 456 457 458 459 460 461 462 463 464 465
          466 467 468 469 470 471 472 473 474 475 476 477 478 479 480
          481 482 483 484 485 486 487 488 489 490 491 492 493 494 495
          496 497 498 499 500 501 502 503 504 505 506 507 508 509 510
          511 512 513 514 515 516 517 518 519 520 521 522 523 524 525
          526 527 528 529 530 531 532 533 534 535 536 537 538 539 540
          541 542 543 544 545 546 547 548 549 550 551 552 553 554 555
          556 557 558 559 560 561 562 563 564 565 566 567 568 569 570
          571 572 573 574 575 576 577 578 579 580 581 582 583 584 585
          586 587 588 589 590 591 592 593 594 595 596 597 598 599 600
          601 602 603 604 605 606 607 608 609 610 611 612 613 614 615
          616 617 618 619 620 621 622 623 624 625 626 627 628 629 630
          631 632 633 634 635 636 637 638 639 640 641 642 643 644 645
          646 647 648 649 650 651 652 653 654 655 656 657 658 659 660
          661 662 663 664 665 666 667 668 669 670 671 672 673 674 675
          676 677 678 679 680 681 682 683 684 685 686 687 688 689 690
          691 692 693 694 695 696 697 698 699 700 701 702 703 704 705
          706 707 708 709 710 711 712 713 714 715 716 717 718 719 720

  Surfaces:

GLOBAL TO LOCAL NODE AND ELEMENT MAPS
  Global     Local      
  node       node       
  number     number     
                        Instance name                                   
   1          1         BEAM-1                                          
   2          2         BEAM-1                                          
   3          3         BEAM-1                                          
   4          4         BEAM-1                                          
   5          5         BEAM-1                                          
   6          6         BEAM-1                                          
   7          7         BEAM-1                                          
   8          8         BEAM-1                                          
   9          9         BEAM-1                                          
   10         10        BEAM-1                                          
   11         11        BEAM-1                                          
   12         12        BEAM-1                                          
   13         13        BEAM-1                                          
   14         14        BEAM-1                                          
   15         15        BEAM-1                                          
   16         16        BEAM-1                                          
   17         17        BEAM-1                                          
   18         18        BEAM-1                                          
   19         19        BEAM-1                                          
   20         20        BEAM-1                                          
   21         21        BEAM-1                                          
   22         22        BEAM-1                                          
   23         23        BEAM-1                                          
   24         24        BEAM-1                                          
   25         25        BEAM-1                                          
   26         26        BEAM-1                                          
   27         27        BEAM-1                                          
   28         28        BEAM-1                                          
   29         29        BEAM-1                                          
   30         30        BEAM-1                                          
   31         31        BEAM-1                                          
   32         32        BEAM-1                                          
   33         33        BEAM-1                                          
   34         34        BEAM-1                                          
   35         35        BEAM-1                                          
   36         36        BEAM-1                                          
   37         37        BEAM-1                                          
   38         38        BEAM-1                                          
   39         39        BEAM-1                                          
   40         40        BEAM-1                                          
   41         41        BEAM-1                                          
   42         42        BEAM-1                                          
   43         43        BEAM-1                                          
   44         44        BEAM-1                                          
   45         45        BEAM-1                                          
   46         46        BEAM-1                                          
   47         47        BEAM-1                                          
   48         48        BEAM-1                                          
   49         49        BEAM-1                                          
   50         50        BEAM-1                                          
   51         51        BEAM-1                                          
   52         52        BEAM-1                                          
   53         53        BEAM-1                                          
   54         54        BEAM-1                                          
   55         55        BEAM-1                                          
   56         56        BEAM-1                                          
   57         57        BEAM-1                                          
   58         58        BEAM-1                                          
   59         59        BEAM-1                                          
   60         60        BEAM-1                                          
   61         61        BEAM-1                                          
   62         62        BEAM-1                                          
   63         63        BEAM-1                                          
   64         64        BEAM-1                                          
   65         65        BEAM-1                                          
   66         66        BEAM-1                                          
   67         67        BEAM-1                                          
   68         68        BEAM-1                                          
   69         69        BEAM-1                                          
   70         70        BEAM-1                                          
   71         71        BEAM-1                                          
   72         72        BEAM-1                                          
   73         73        BEAM-1                                          
   74         74        BEAM-1                                          
   75         75        BEAM-1                                          
   76         76        BEAM-1                                          
   77         77        BEAM-1                                          
   78         78        BEAM-1                                          
   79         79        BEAM-1                                          
   80         80        BEAM-1                                          
   81         81        BEAM-1                                          
   82         82        BEAM-1                                          
   83         83        BEAM-1                                          
   84         84        BEAM-1                                          
   85         85        BEAM-1                                          
   86         86        BEAM-1                                          
   87         87        BEAM-1                                          
   88         88        BEAM-1                                          
   89         89        BEAM-1                                          
   90         90        BEAM-1                                          
   91         91        BEAM-1                                          
   92         92        BEAM-1                                          
   93         93        BEAM-1                                          
   94         94        BEAM-1                                          
   95         95        BEAM-1                                          
   96         96        BEAM-1                                          
   97         97        BEAM-1                                          
   98         98        BEAM-1                                          
   99         99        BEAM-1                                          
   100        100       BEAM-1                                          
   101        101       BEAM-1                                          
   102        102       BEAM-1                                          
   103        103       BEAM-1                                          
   104        104       BEAM-1                                          
   105        105       BEAM-1                                          
   106        106       BEAM-1                                          
   107        107       BEAM-1                                          
   108        108       BEAM-1                                          
   109        109       BEAM-1                                          
   110        110       BEAM-1                                          
   111        111       BEAM-1                                          
   112        112       BEAM-1                                          
   113        113       BEAM-1                                          
   114        114       BEAM-1                                          
   115        115       BEAM-1                                          
   116        116       BEAM-1                                          
   117        117       BEAM-1                                          
   118        118       BEAM-1                                          
   119        119       BEAM-1                                          
   120        120       BEAM-1                                          
   121        121       BEAM-1                                          
   122        122       BEAM-1                                          
   123        123       BEAM-1                                          
   124        124       BEAM-1                                          
   125        125       BEAM-1                                          
   126        126       BEAM-1                                          
   127        127       BEAM-1                                          
   128        128       BEAM-1                                          
   129        129       BEAM-1                                          
   130        130       BEAM-1                                          
   131        131       BEAM-1                                          
   132        132       BEAM-1                                          
   133        133       BEAM-1                                          
   134        134       BEAM-1                                          
   135        135       BEAM-1                                          
   136        136       BEAM-1                                          
   137        137       BEAM-1                                          
   138        138       BEAM-1                                          
   139        139       BEAM-1                                          
   140        140       BEAM-1                                          
   141        141       BEAM-1                                          
   142        142       BEAM-1                                          
   143        143       BEAM-1                                          
   144        144       BEAM-1                                          
   145        145       BEAM-1                                          
   146        146       BEAM-1                                          
   147        147       BEAM-1                                          
   148        148       BEAM-1                                          
   149        149       BEAM-1                                          
   150        150       BEAM-1                                          
   151        151       BEAM-1                                          
   152        152       BEAM-1                                          
   153        153       BEAM-1                                          
   154        154       BEAM-1                                          
   155        155       BEAM-1                                          
   156        156       BEAM-1                                          
   157        157       BEAM-1                                          
   158        158       BEAM-1                                          
   159        159       BEAM-1                                          
   160        160       BEAM-1                                          
   161        161       BEAM-1                                          
   162        162       BEAM-1                                          
   163        163       BEAM-1                                          
   164        164       BEAM-1                                          
   165        165       BEAM-1                                          
   166        166       BEAM-1                                          
   167        167       BEAM-1                                          
   168        168       BEAM-1                                          
   169        169       BEAM-1                                          
   170        170       BEAM-1                                          
   171        171       BEAM-1                                          
   172        172       BEAM-1                                          
   173        173       BEAM-1                                          
   174        174       BEAM-1                                          
   175        175       BEAM-1                                          
   176        176       BEAM-1                                          
   177        177       BEAM-1                                          
   178        178       BEAM-1                                          
   179        179       BEAM-1                                          
   180        180       BEAM-1                                          
   181        181       BEAM-1                                          
   182        182       BEAM-1                                          
   183        183       BEAM-1                                          
   184        184       BEAM-1                                          
   185        185       BEAM-1                                          
   186        186       BEAM-1                                          
   187        187       BEAM-1                                          
   188        188       BEAM-1                                          
   189        189       BEAM-1                                          
   190        190       BEAM-1                                          
   191        191       BEAM-1                                          
   192        192       BEAM-1                                          
   193        193       BEAM-1                                          
   194        194       BEAM-1                                          
   195        195       BEAM-1                                          
   196        196       BEAM-1                                          
   197        197       BEAM-1                                          
   198        198       BEAM-1                                          
   199        199       BEAM-1                                          
   200        200       BEAM-1                                          
   201        201       BEAM-1                                          
   202        202       BEAM-1                                          
   203        203       BEAM-1                                          
   204        204       BEAM-1                                          
   205        205       BEAM-1                                          
   206        206       BEAM-1                                          
   207        207       BEAM-1                                          
   208        208       BEAM-1                                          
   209        209       BEAM-1                                          
   210        210       BEAM-1                                          
   211        211       BEAM-1                                          
   212        212       BEAM-1                                          
   213        213       BEAM-1                                          
   214        214       BEAM-1                                          
   215        215       BEAM-1                                          
   216        216       BEAM-1                                          
   217        217       BEAM-1                                          
   218        218       BEAM-1                                          
   219        219       BEAM-1                                          
   220        220       BEAM-1                                          
   221        221       BEAM-1                                          
   222        222       BEAM-1                                          
   223        223       BEAM-1                                          
   224        224       BEAM-1                                          
   225        225       BEAM-1                                          
   226        226       BEAM-1                                          
   227        227       BEAM-1                                          
   228        228       BEAM-1                                          
   229        229       BEAM-1                                          
   230        230       BEAM-1                                          
   231        231       BEAM-1                                          
   232        232       BEAM-1                                          
   233        233       BEAM-1                                          
   234        234       BEAM-1                                          
   235        235       BEAM-1                                          
   236        236       BEAM-1                                          
   237        237       BEAM-1                                          
   238        238       BEAM-1                                          
   239        239       BEAM-1                                          
   240        240       BEAM-1                                          
   241        241       BEAM-1                                          
   242        242       BEAM-1                                          
   243        243       BEAM-1                                          
   244        244       BEAM-1                                          
   245        245       BEAM-1                                          
   246        246       BEAM-1                                          
   247        247       BEAM-1                                          
   248        248       BEAM-1                                          
   249        249       BEAM-1                                          
   250        250       BEAM-1                                          
   251        251       BEAM-1                                          
   252        252       BEAM-1                                          
   253        253       BEAM-1                                          
   254        254       BEAM-1                                          
   255        255       BEAM-1                                          
   256        256       BEAM-1                                          
   257        257       BEAM-1                                          
   258        258       BEAM-1                                          
   259        259       BEAM-1                                          
   260        260       BEAM-1                                          
   261        261       BEAM-1                                          
   262        262       BEAM-1                                          
   263        263       BEAM-1                                          
   264        264       BEAM-1                                          
   265        265       BEAM-1                                          
   266        266       BEAM-1                                          
   267        267       BEAM-1                                          
   268        268       BEAM-1                                          
   269        269       BEAM-1                                          
   270        270       BEAM-1                                          
   271        271       BEAM-1                                          
   272        272       BEAM-1                                          
   273        273       BEAM-1                                          
   274        274       BEAM-1                                          
   275        275       BEAM-1                                          
   276        276       BEAM-1                                          
   277        277       BEAM-1                                          
   278        278       BEAM-1                                          
   279        279       BEAM-1                                          
   280        280       BEAM-1                                          
   281        281       BEAM-1                                          
   282        282       BEAM-1                                          
   283        283       BEAM-1                                          
   284        284       BEAM-1                                          
   285        285       BEAM-1                                          
   286        286       BEAM-1                                          
   287        287       BEAM-1                                          
   288        288       BEAM-1                                          
   289        289       BEAM-1                                          
   290        290       BEAM-1                                          
   291        291       BEAM-1                                          
   292        292       BEAM-1                                          
   293        293       BEAM-1                                          
   294        294       BEAM-1                                          
   295        295       BEAM-1                                          
   296        296       BEAM-1                                          
   297        297       BEAM-1                                          
   298        298       BEAM-1                                          
   299        299       BEAM-1                                          
   300        300       BEAM-1                                          
   301        301       BEAM-1                                          
   302        302       BEAM-1                                          
   303        303       BEAM-1                                          
   304        304       BEAM-1                                          
   305        305       BEAM-1                                          
   306        306       BEAM-1                                          
   307        307       BEAM-1                                          
   308        308       BEAM-1                                          
   309        309       BEAM-1                                          
   310        310       BEAM-1                                          
   311        311       BEAM-1                                          
   312        312       BEAM-1                                          
   313        313       BEAM-1                                          
   314        314       BEAM-1                                          
   315        315       BEAM-1                                          
   316        316       BEAM-1                                          
   317        317       BEAM-1                                          
   318        318       BEAM-1                                          
   319        319       BEAM-1                                          
   320        320       BEAM-1                                          
   321        321       BEAM-1                                          
   322        322       BEAM-1                                          
   323        323       BEAM-1                                          
   324        324       BEAM-1                                          
   325        325       BEAM-1                                          
   326        326       BEAM-1                                          
   327        327       BEAM-1                                          
   328        328       BEAM-1                                          
   329        329       BEAM-1                                          
   330        330       BEAM-1                                          
   331        331       BEAM-1                                          
   332        332       BEAM-1                                          
   333        333       BEAM-1                                          
   334        334       BEAM-1                                          
   335        335       BEAM-1                                          
   336        336       BEAM-1                                          
   337        337       BEAM-1                                          
   338        338       BEAM-1                                          
   339        339       BEAM-1                                          
   340        340       BEAM-1                                          
   341        341       BEAM-1                                          
   342        342       BEAM-1                                          
   343        343       BEAM-1                                          
   344        344       BEAM-1                                          
   345        345       BEAM-1                                          
   346        346       BEAM-1                                          
   347        347       BEAM-1                                          
   348        348       BEAM-1                                          
   349        349       BEAM-1                                          
   350        350       BEAM-1                                          
   351        351       BEAM-1                                          
   352        352       BEAM-1                                          
   353        353       BEAM-1                                          
   354        354       BEAM-1                                          
   355        355       BEAM-1                                          
   356        356       BEAM-1                                          
   357        357       BEAM-1                                          
   358        358       BEAM-1                                          
   359        359       BEAM-1                                          
   360        360       BEAM-1                                          
   361        361       BEAM-1                                          
   362        362       BEAM-1                                          
   363        363       BEAM-1                                          
   364        364       BEAM-1                                          
   365        365       BEAM-1                                          
   366        366       BEAM-1                                          
   367        367       BEAM-1                                          
   368        368       BEAM-1                                          
   369        369       BEAM-1                                          
   370        370       BEAM-1                                          
   371        371       BEAM-1                                          
   372        372       BEAM-1                                          
   373        373       BEAM-1                                          
   374        374       BEAM-1                                          
   375        375       BEAM-1                                          
   376        376       BEAM-1                                          
   377        377       BEAM-1                                          
   378        378       BEAM-1                                          
   379        379       BEAM-1                                          
   380        380       BEAM-1                                          
   381        381       BEAM-1                                          
   382        382       BEAM-1                                          
   383        383       BEAM-1                                          
   384        384       BEAM-1                                          
   385        385       BEAM-1                                          
   386        386       BEAM-1                                          
   387        387       BEAM-1                                          
   388        388       BEAM-1                                          
   389        389       BEAM-1                                          
   390        390       BEAM-1                                          
   391        391       BEAM-1                                          
   392        392       BEAM-1                                          
   393        393       BEAM-1                                          
   394        394       BEAM-1                                          
   395        395       BEAM-1                                          
   396        396       BEAM-1                                          
   397        397       BEAM-1                                          
   398        398       BEAM-1                                          
   399        399       BEAM-1                                          
   400        400       BEAM-1                                          
   401        401       BEAM-1                                          
   402        402       BEAM-1                                          
   403        403       BEAM-1                                          
   404        404       BEAM-1                                          
   405        405       BEAM-1                                          
   406        406       BEAM-1                                          
   407        407       BEAM-1                                          
   408        408       BEAM-1                                          
   409        409       BEAM-1                                          
   410        410       BEAM-1                                          
   411        411       BEAM-1                                          
   412        412       BEAM-1                                          
   413        413       BEAM-1                                          
   414        414       BEAM-1                                          
   415        415       BEAM-1                                          
   416        416       BEAM-1                                          
   417        417       BEAM-1                                          
   418        418       BEAM-1                                          
   419        419       BEAM-1                                          
   420        420       BEAM-1                                          
   421        421       BEAM-1                                          
   422        422       BEAM-1                                          
   423        423       BEAM-1                                          
   424        424       BEAM-1                                          
   425        425       BEAM-1                                          
   426        426       BEAM-1                                          
   427        427       BEAM-1                                          
   428        428       BEAM-1                                          
   429        429       BEAM-1                                          
   430        430       BEAM-1                                          
   431        431       BEAM-1                                          
   432        432       BEAM-1                                          
   433        433       BEAM-1                                          
   434        434       BEAM-1                                          
   435        435       BEAM-1                                          
   436        436       BEAM-1                                          
   437        437       BEAM-1                                          
   438        438       BEAM-1                                          
   439        439       BEAM-1                                          
   440        440       BEAM-1                                          
   441        441       BEAM-1                                          
   442        442       BEAM-1                                          
   443        443       BEAM-1                                          
   444        444       BEAM-1                                          
   445        445       BEAM-1                                          
   446        446       BEAM-1                                          
   447        447       BEAM-1                                          
   448        448       BEAM-1                                          
   449        449       BEAM-1                                          
   450        450       BEAM-1                                          
   451        451       BEAM-1                                          
   452        452       BEAM-1                                          
   453        453       BEAM-1                                          
   454        454       BEAM-1                                          
   455        455       BEAM-1                                          
   456        456       BEAM-1                                          
   457        457       BEAM-1                                          
   458        458       BEAM-1                                          
   459        459       BEAM-1                                          
   460        460       BEAM-1                                          
   461        461       BEAM-1                                          
   462        462       BEAM-1                                          
   463        463       BEAM-1                                          
   464        464       BEAM-1                                          
   465        465       BEAM-1                                          
   466        466       BEAM-1                                          
   467        467       BEAM-1                                          
   468        468       BEAM-1                                          
   469        469       BEAM-1                                          
   470        470       BEAM-1                                          
   471        471       BEAM-1                                          
   472        472       BEAM-1                                          
   473        473       BEAM-1                                          
   474        474       BEAM-1                                          
   475        475       BEAM-1                                          
   476        476       BEAM-1                                          
   477        477       BEAM-1                                          
   478        478       BEAM-1                                          
   479        479       BEAM-1                                          
   480        480       BEAM-1                                          
   481        481       BEAM-1                                          
   482        482       BEAM-1                                          
   483        483       BEAM-1                                          
   484        484       BEAM-1                                          
   485        485       BEAM-1                                          
   486        486       BEAM-1                                          
   487        487       BEAM-1                                          
   488        488       BEAM-1                                          
   489        489       BEAM-1                                          
   490        490       BEAM-1                                          
   491        491       BEAM-1                                          
   492        492       BEAM-1                                          
   493        493       BEAM-1                                          
   494        494       BEAM-1                                          
   495        495       BEAM-1                                          
   496        496       BEAM-1                                          
   497        497       BEAM-1                                          
   498        498       BEAM-1                                          
   499        499       BEAM-1                                          
   500        500       BEAM-1                                          
   501        501       BEAM-1                                          
   502        502       BEAM-1                                          
   503        503       BEAM-1                                          
   504        504       BEAM-1                                          
   505        505       BEAM-1                                          
   506        506       BEAM-1                                          
   507        507       BEAM-1                                          
   508        508       BEAM-1                                          
   509        509       BEAM-1                                          
   510        510       BEAM-1                                          
   511        511       BEAM-1                                          
   512        512       BEAM-1                                          
   513        513       BEAM-1                                          
   514        514       BEAM-1                                          
   515        515       BEAM-1                                          
   516        516       BEAM-1                                          
   517        517       BEAM-1                                          

  Global     Local      
  element    element    
  number     number     
                        Instance name                                   
   1          1         BEAM-1                                          
   2          2         BEAM-1                                          
   3          3         BEAM-1                                          
   4          4         BEAM-1                                          
   5          5         BEAM-1                                          
   6          6         BEAM-1                                          
   7          7         BEAM-1                                          
   8          8         BEAM-1                                          
   9          9         BEAM-1                                          
   10         10        BEAM-1                                          
   11         11        BEAM-1                                          
   12         12        BEAM-1                                          
   13         13        BEAM-1                                          
   14         14        BEAM-1                                          
   15         15        BEAM-1                                          
   16         16        BEAM-1                                          
   17         17        BEAM-1                                          
   18         18        BEAM-1                                          
   19         19        BEAM-1                                          
   20         20        BEAM-1                                          
   21         21        BEAM-1                                          
   22         22        BEAM-1                                          
   23         23        BEAM-1                                          
   24         24        BEAM-1                                          
   25         25        BEAM-1                                          
   26         26        BEAM-1                                          
   27         27        BEAM-1                                          
   28         28        BEAM-1                                          
   29         29        BEAM-1                                          
   30         30        BEAM-1                                          
   31         31        BEAM-1                                          
   32         32        BEAM-1                                          
   33         33        BEAM-1                                          
   34         34        BEAM-1                                          
   35         35        BEAM-1                                          
   36         36        BEAM-1                                          
   37         37        BEAM-1                                          
   38         38        BEAM-1                                          
   39         39        BEAM-1                                          
   40         40        BEAM-1                                          
   41         41        BEAM-1                                          
   42         42        BEAM-1                                          
   43         43        BEAM-1                                          
   44         44        BEAM-1                                          
   45         45        BEAM-1                                          
   46         46        BEAM-1                                          
   47         47        BEAM-1                                          
   48         48        BEAM-1                                          
   49         49        BEAM-1                                          
   50         50        BEAM-1                                          
   51         51        BEAM-1                                          
   52         52        BEAM-1                                          
   53         53        BEAM-1                                          
   54         54        BEAM-1                                          
   55         55        BEAM-1                                          
   56         56        BEAM-1                                          
   57         57        BEAM-1                                          
   58         58        BEAM-1                                          
   59         59        BEAM-1                                          
   60         60        BEAM-1                                          
   61         61        BEAM-1                                          
   62         62        BEAM-1                                          
   63         63        BEAM-1                                          
   64         64        BEAM-1                                          
   65         65        BEAM-1                                          
   66         66        BEAM-1                                          
   67         67        BEAM-1                                          
   68         68        BEAM-1                                          
   69         69        BEAM-1                                          
   70         70        BEAM-1                                          
   71         71        BEAM-1                                          
   72         72        BEAM-1                                          
   73         73        BEAM-1                                          
   74         74        BEAM-1                                          
   75         75        BEAM-1                                          
   76         76        BEAM-1                                          
   77         77        BEAM-1                                          
   78         78        BEAM-1                                          
   79         79        BEAM-1                                          
   80         80        BEAM-1                                          
   81         81        BEAM-1                                          
   82         82        BEAM-1                                          
   83         83        BEAM-1                                          
   84         84        BEAM-1                                          
   85         85        BEAM-1                                          
   86         86        BEAM-1                                          
   87         87        BEAM-1                                          
   88         88        BEAM-1                                          
   89         89        BEAM-1                                          
   90         90        BEAM-1                                          
   91         91        BEAM-1                                          
   92         92        BEAM-1                                          
   93         93        BEAM-1                                          
   94         94        BEAM-1                                          
   95         95        BEAM-1                                          
   96         96        BEAM-1                                          
   97         97        BEAM-1                                          
   98         98        BEAM-1                                          
   99         99        BEAM-1                                          
   100        100       BEAM-1                                          
   101        101       BEAM-1                                          
   102        102       BEAM-1                                          
   103        103       BEAM-1                                          
   104        104       BEAM-1                                          
   105        105       BEAM-1                                          
   106        106       BEAM-1                                          
   107        107       BEAM-1                                          
   108        108       BEAM-1                                          
   109        109       BEAM-1                                          
   110        110       BEAM-1                                          
   111        111       BEAM-1                                          
   112        112       BEAM-1                                          
   113        113       BEAM-1                                          
   114        114       BEAM-1                                          
   115        115       BEAM-1                                          
   116        116       BEAM-1                                          
   117        117       BEAM-1                                          
   118        118       BEAM-1                                          
   119        119       BEAM-1                                          
   120        120       BEAM-1                                          
   121        121       BEAM-1                                          
   122        122       BEAM-1                                          
   123        123       BEAM-1                                          
   124        124       BEAM-1                                          
   125        125       BEAM-1                                          
   126        126       BEAM-1                                          
   127        127       BEAM-1                                          
   128        128       BEAM-1                                          
   129        129       BEAM-1                                          
   130        130       BEAM-1                                          
   131        131       BEAM-1                                          
   132        132       BEAM-1                                          
   133        133       BEAM-1                                          
   134        134       BEAM-1                                          
   135        135       BEAM-1                                          
   136        136       BEAM-1                                          
   137        137       BEAM-1                                          
   138        138       BEAM-1                                          
   139        139       BEAM-1                                          
   140        140       BEAM-1                                          
   141        141       BEAM-1                                          
   142        142       BEAM-1                                          
   143        143       BEAM-1                                          
   144        144       BEAM-1                                          
   145        145       BEAM-1                                          
   146        146       BEAM-1                                          
   147        147       BEAM-1                                          
   148        148       BEAM-1                                          
   149        149       BEAM-1                                          
   150        150       BEAM-1                                          
   151        151       BEAM-1                                          
   152        152       BEAM-1                                          
   153        153       BEAM-1                                          
   154        154       BEAM-1                                          
   155        155       BEAM-1                                          
   156        156       BEAM-1                                          
   157        157       BEAM-1                                          
   158        158       BEAM-1                                          
   159        159       BEAM-1                                          
   160        160       BEAM-1                                          
   161        161       BEAM-1                                          
   162        162       BEAM-1                                          
   163        163       BEAM-1                                          
   164        164       BEAM-1                                          
   165        165       BEAM-1                                          
   166        166       BEAM-1                                          
   167        167       BEAM-1                                          
   168        168       BEAM-1                                          
   169        169       BEAM-1                                          
   170        170       BEAM-1                                          
   171        171       BEAM-1                                          
   172        172       BEAM-1                                          
   173        173       BEAM-1                                          
   174        174       BEAM-1                                          
   175        175       BEAM-1                                          
   176        176       BEAM-1                                          
   177        177       BEAM-1                                          
   178        178       BEAM-1                                          
   179        179       BEAM-1                                          
   180        180       BEAM-1                                          
   181        181       BEAM-1                                          
   182        182       BEAM-1                                          
   183        183       BEAM-1                                          
   184        184       BEAM-1                                          
   185        185       BEAM-1                                          
   186        186       BEAM-1                                          
   187        187       BEAM-1                                          
   188        188       BEAM-1                                          
   189        189       BEAM-1                                          
   190        190       BEAM-1                                          
   191        191       BEAM-1                                          
   192        192       BEAM-1                                          
   193        193       BEAM-1                                          
   194        194       BEAM-1                                          
   195        195       BEAM-1                                          
   196        196       BEAM-1                                          
   197        197       BEAM-1                                          
   198        198       BEAM-1                                          
   199        199       BEAM-1                                          
   200        200       BEAM-1                                          
   201        201       BEAM-1                                          
   202        202       BEAM-1                                          
   203        203       BEAM-1                                          
   204        204       BEAM-1                                          
   205        205       BEAM-1                                          
   206        206       BEAM-1                                          
   207        207       BEAM-1                                          
   208        208       BEAM-1                                          
   209        209       BEAM-1                                          
   210        210       BEAM-1                                          
   211        211       BEAM-1                                          
   212        212       BEAM-1                                          
   213        213       BEAM-1                                          
   214        214       BEAM-1                                          
   215        215       BEAM-1                                          
   216        216       BEAM-1                                          
   217        217       BEAM-1                                          
   218        218       BEAM-1                                          
   219        219       BEAM-1                                          
   220        220       BEAM-1                                          
   221        221       BEAM-1                                          
   222        222       BEAM-1                                          
   223        223       BEAM-1                                          
   224        224       BEAM-1                                          
   225        225       BEAM-1                                          
   226        226       BEAM-1                                          
   227        227       BEAM-1                                          
   228        228       BEAM-1                                          
   229        229       BEAM-1                                          
   230        230       BEAM-1                                          
   231        231       BEAM-1                                          
   232        232       BEAM-1                                          
   233        233       BEAM-1                                          
   234        234       BEAM-1                                          
   235        235       BEAM-1                                          
   236        236       BEAM-1                                          
   237        237       BEAM-1                                          
   238        238       BEAM-1                                          
   239        239       BEAM-1                                          
   240        240       BEAM-1                                          
   241        241       BEAM-1                                          
   242        242       BEAM-1                                          
   243        243       BEAM-1                                          
   244        244       BEAM-1                                          
   245        245       BEAM-1                                          
   246        246       BEAM-1                                          
   247        247       BEAM-1                                          
   248        248       BEAM-1                                          
   249        249       BEAM-1                                          
   250        250       BEAM-1                                          
   251        251       BEAM-1                                          
   252        252       BEAM-1                                          
   253        253       BEAM-1                                          
   254        254       BEAM-1                                          
   255        255       BEAM-1                                          
   256        256       BEAM-1                                          
   257        257       BEAM-1                                          
   258        258       BEAM-1                                          
   259        259       BEAM-1                                          
   260        260       BEAM-1                                          
   261        261       BEAM-1                                          
   262        262       BEAM-1                                          
   263        263       BEAM-1                                          
   264        264       BEAM-1                                          
   265        265       BEAM-1                                          
   266        266       BEAM-1                                          
   267        267       BEAM-1                                          
   268        268       BEAM-1                                          
   269        269       BEAM-1                                          
   270        270       BEAM-1                                          
   271        271       BEAM-1                                          
   272        272       BEAM-1                                          
   273        273       BEAM-1                                          
   274        274       BEAM-1                                          
   275        275       BEAM-1                                          
   276        276       BEAM-1                                          
   277        277       BEAM-1                                          
   278        278       BEAM-1                                          
   279        279       BEAM-1                                          
   280        280       BEAM-1                                          
   281        281       BEAM-1                                          
   282        282       BEAM-1                                          
   283        283       BEAM-1                                          
   284        284       BEAM-1                                          
   285        285       BEAM-1                                          
   286        286       BEAM-1                                          
   287        287       BEAM-1                                          
   288        288       BEAM-1                                          
   289        289       BEAM-1                                          
   290        290       BEAM-1                                          
   291        291       BEAM-1                                          
   292        292       BEAM-1                                          
   293        293       BEAM-1                                          
   294        294       BEAM-1                                          
   295        295       BEAM-1                                          
   296        296       BEAM-1                                          
   297        297       BEAM-1                                          
   298        298       BEAM-1                                          
   299        299       BEAM-1                                          
   300        300       BEAM-1                                          
   301        301       BEAM-1                                          
   302        302       BEAM-1                                          
   303        303       BEAM-1                                          
   304        304       BEAM-1                                          
   305        305       BEAM-1                                          
   306        306       BEAM-1                                          
   307        307       BEAM-1                                          
   308        308       BEAM-1                                          
   309        309       BEAM-1                                          
   310        310       BEAM-1                                          
   311        311       BEAM-1                                          
   312        312       BEAM-1                                          
   313        313       BEAM-1                                          
   314        314       BEAM-1                                          
   315        315       BEAM-1                                          
   316        316       BEAM-1                                          
   317        317       BEAM-1                                          
   318        318       BEAM-1                                          
   319        319       BEAM-1                                          
   320        320       BEAM-1                                          
   321        321       BEAM-1                                          
   322        322       BEAM-1                                          
   323        323       BEAM-1                                          
   324        324       BEAM-1                                          
   325        325       BEAM-1                                          
   326        326       BEAM-1                                          
   327        327       BEAM-1                                          
   328        328       BEAM-1                                          
   329        329       BEAM-1                                          
   330        330       BEAM-1                                          
   331        331       BEAM-1                                          
   332        332       BEAM-1                                          
   333        333       BEAM-1                                          
   334        334       BEAM-1                                          
   335        335       BEAM-1                                          
   336        336       BEAM-1                                          
   337        337       BEAM-1                                          
   338        338       BEAM-1                                          
   339        339       BEAM-1                                          
   340        340       BEAM-1                                          
   341        341       BEAM-1                                          
   342        342       BEAM-1                                          
   343        343       BEAM-1                                          
   344        344       BEAM-1                                          
   345        345       BEAM-1                                          
   346        346       BEAM-1                                          
   347        347       BEAM-1                                          
   348        348       BEAM-1                                          
   349        349       BEAM-1                                          
   350        350       BEAM-1                                          
   351        351       BEAM-1                                          
   352        352       BEAM-1                                          
   353        353       BEAM-1                                          
   354        354       BEAM-1                                          
   355        355       BEAM-1                                          
   356        356       BEAM-1                                          
   357        357       BEAM-1                                          
   358        358       BEAM-1                                          
   359        359       BEAM-1                                          
   360        360       BEAM-1                                          
   361        361       BEAM-1                                          
   362        362       BEAM-1                                          
   363        363       BEAM-1                                          
   364        364       BEAM-1                                          
   365        365       BEAM-1                                          
   366        366       BEAM-1                                          
   367        367       BEAM-1                                          
   368        368       BEAM-1                                          
   369        369       BEAM-1                                          
   370        370       BEAM-1                                          
   371        371       BEAM-1                                          
   372        372       BEAM-1                                          
   373        373       BEAM-1                                          
   374        374       BEAM-1                                          
   375        375       BEAM-1                                          
   376        376       BEAM-1                                          
   377        377       BEAM-1                                          
   378        378       BEAM-1                                          
   379        379       BEAM-1                                          
   380        380       BEAM-1                                          
   381        381       BEAM-1                                          
   382        382       BEAM-1                                          
   383        383       BEAM-1                                          
   384        384       BEAM-1                                          
   385        385       BEAM-1                                          
   386        386       BEAM-1                                          
   387        387       BEAM-1                                          
[...]
        448      3.8580E-02 -0.8873     
        449      7.1543E-02 -0.8851     
        450      8.9309E-02 -0.8463     
        451      7.5406E-02 -0.8289     
        452      2.1516E-02 -0.7261     
        453     -0.1085     -0.7165     
        454     -0.1042     -0.7419     
        455      8.7352E-03 -0.8680     
        456      2.2867E-02 -0.8750     
        457     -3.1939E-02 -0.8326     
        458      0.1593     -0.8355     
        459      0.1348     -0.7496     
        460      3.6529E-02 -0.7119     
        461      2.1902E-02 -0.6717     
        462     -4.8263E-02 -0.7684     
        463     -9.1986E-02 -0.7414     
        464     -1.4437E-03 -0.6181     
        465     -5.1054E-02 -0.6599     
        466     -6.0882E-02 -0.6907     
        467      0.1725     -0.7314     
        468      0.1169     -0.7854     
        469      7.5569E-03 -0.7306     
        470      1.7047E-02 -0.7103     
        471     -4.5114E-02 -0.7764     
        472     -4.3718E-02 -0.7660     
        473      1.6158E-02 -0.8176     
        474     -3.5578E-02 -0.8107     
        475     -7.0808E-02 -0.6905     
        476      6.1879E-02 -0.7009     
        477      2.6685E-02 -0.7388     
        478      5.9936E-02 -0.7446     
        479     -9.5692E-03 -0.6294     
        480     -1.7512E-02 -0.6932     
        481      1.3633E-02 -0.7151     
        482      1.5053E-02 -0.7248     
        483     -6.9551E-02 -0.7206     
        484     -1.7415E-02 -0.7406     
        485     -3.5240E-02 -0.7760     
        486     -1.5033E-02 -0.8294     
        487      5.9714E-02 -0.7971     
        488      1.7334E-02 -0.7072     
        489      1.6162E-02 -0.7087     
        490      4.7430E-02 -0.7063     
        491      3.2533E-02 -0.8462     
        492     -2.8965E-02 -0.8464     
        493      1.7451E-02 -0.8120     
        494     -0.1703     -0.7716     
        495     -9.7692E-02 -0.7831     
        496      8.4097E-02 -0.7955     
        497      8.2198E-02 -0.7267     
        498     -1.1038E-02 -0.7003     
        499      4.6401E-02 -0.7304     
        500      3.0084E-02 -0.8754     
        501     -7.1757E-03 -0.8967     
        502     -9.0906E-02 -0.8265     
        503     -0.1532     -0.8596     
        504     -0.1690     -0.7833     
        505      8.1337E-02 -0.7783     
        506      9.5126E-02 -0.7427     
        507      2.5016E-02 -0.7764     
        508     -5.4889E-03 -0.6925     
        509      0.1099     -0.9510     
        510     -8.3849E-03 -0.9125     
        511     -0.1293     -0.8583     
        512     -0.1917     -0.8662     
        513     -0.1722     -0.8800     
        514      2.1206E-02 -0.8436     
        515      9.1652E-02 -0.9133     
        516      3.9115E-02 -0.8981     
        517      8.1402E-03 -0.8652     

 MAXIMUM         0.2107       0.000    
 AT NODE                 5           3

 MINIMUM        -0.1917      -1.105    
 AT NODE               512           5


                                INCREMENT    97 SUMMARY


 TIME INCREMENT COMPLETED  0.100    ,  FRACTION OF STEP COMPLETED  0.980    
 STEP TIME COMPLETED        9.70    ,  TOTAL TIME COMPLETED         9.70    
  
  
  
  
                                       N O D E   O U T P U T
  
  
  
  
   THE FOLLOWING TABLE IS PRINTED FOR ALL NODES
  
       NODE FOOT-   U1          U2       
            NOTE
  
          1      1.3174E-02 -0.8318     
          2      0.1188     -0.8868     
          5      0.2092      -1.097     
          6     -8.7942E-02 -0.8632     
          9      6.6731E-02 -0.6638     
         10      0.1142     -0.8622     
         11      6.6210E-02 -0.9508     
         12     -0.1672     -0.9562     
         13     -0.2807     -0.8651     
         14     -0.1542     -0.8511     
         15     -8.0354E-02 -0.8755     
         16      2.1452E-02 -0.7356     
         17      5.9575E-03 -0.8456     
         18     -5.4312E-03 -0.9593     
         62     -7.9840E-02 -0.9485     
         63     -9.1963E-02 -0.8392     
         64     -2.1554E-02 -0.7807     
         65      1.1668E-02 -0.7765     
         66      7.8908E-02 -0.7318     
         67      0.1984     -0.8268     
         68      0.1592     -0.9851     
         69     -2.4420E-03 -0.9467     
         70     -8.4494E-02 -0.8610     
        114      6.6234E-02 -0.9157     
        115      1.6510E-02 -0.7817     
        116     -2.3278E-02 -0.7167     
        117      2.8973E-02 -0.7737     
        118      9.0792E-02 -0.7390     
        119      2.1024E-02 -0.7554     
        120      3.9692E-02 -0.7576     
        121      5.4654E-02 -0.8401     
        122      6.3600E-02  -1.087     
        123      8.5893E-02 -0.9082     
        124      4.3848E-03 -0.7743     
        125      4.5118E-02 -0.8856     
        126     -8.9359E-03 -0.8485     
        127     -3.1475E-02 -0.7301     
        128     -1.0791E-02 -0.9395     
        129     -5.7593E-02 -0.8798     
        130     -2.6971E-02 -0.9178     
        437     -8.2063E-03 -0.8940     
        438      6.7501E-03 -0.8905     
        439      0.1150     -0.9673     
        440      0.1902     -0.9588     
        441      7.8461E-02 -0.9211     
        442      1.4938E-02 -0.8733     
        443     -2.8799E-02 -0.8088     
        444     -0.1033     -0.8398     
        445     -0.1144     -0.9055     
        446      5.0075E-02 -0.9514     
        447      5.3101E-02 -0.8687     
        448      4.9257E-02 -0.8635     
        449      0.1303     -0.8748     
        450      6.2306E-02 -0.8662     
        451      6.4305E-02 -0.8408     
        452      7.4582E-02 -0.7666     
        453     -8.7311E-02 -0.7213     
        454     -0.1459     -0.7403     
        455      2.6873E-02 -0.9124     
        456      2.0690E-02 -0.8425     
        457     -4.7481E-02 -0.8278     
        458      0.1489     -0.8427     
        459      0.1137     -0.7013     
        460      6.6476E-02 -0.6828     
        461      5.2615E-02 -0.6449     
        462     -4.9583E-02 -0.7372     
        463     -0.1064     -0.7244     
        464      2.5131E-02 -0.7441     
        465     -5.4255E-02 -0.6930     
        466     -9.2421E-02 -0.6806     
        467      0.1128     -0.7068     
        468      0.1355     -0.7197     
        469      2.9879E-02 -0.7354     
        470      2.7381E-03 -0.7336     
        471     -3.2732E-02 -0.8362     
        472     -4.8395E-02 -0.8032     
        473     -3.6118E-02 -0.8498     
        474     -2.9864E-02 -0.7801     
        475     -5.9756E-02 -0.6631     
        476      2.5034E-02 -0.7096     
        477      6.9407E-02 -0.7102     
        478      4.5248E-02 -0.7351     
        479      7.3702E-05 -0.6582     
        480     -2.2984E-02 -0.7230     
        481      3.4686E-02 -0.7147     
        482     -1.0250E-02 -0.8175     
        483     -5.9099E-02 -0.6931     
        484     -3.6866E-02 -0.6958     
        485     -6.1944E-02 -0.7902     
        486      1.7782E-02 -0.8182     
        487      8.9269E-02 -0.8512     
        488      3.0165E-02 -0.7438     
        489      1.9075E-02 -0.7592     
        490      1.0688E-02 -0.7030     
        491      2.2455E-02 -0.8672     
        492     -2.9140E-02 -0.8160     
        493      7.5772E-03 -0.7984     
        494     -0.1361     -0.7605     
        495     -0.1154     -0.7957     
        496      5.3573E-02 -0.7940     
        497      9.4665E-02 -0.7138     
        498     -1.8662E-02 -0.6786     
        499      2.0040E-02 -0.7379     
        500      1.8525E-03 -0.8285     
        501     -3.6582E-03 -0.8323     
        502     -6.7289E-02 -0.8462     
        503     -0.1192     -0.8775     
        504     -0.2546     -0.7815     
        505      2.2475E-02 -0.7963     
        506      0.1010     -0.7754     
        507      5.2180E-02 -0.7740     
        508     -2.8238E-02 -0.7263     
        509      7.4980E-02  -1.015     
        510      2.8022E-02 -0.9310     
        511     -0.1325     -0.8635     
        512     -0.2348     -0.8365     
        513     -0.2345     -0.8381     
        514     -2.0597E-02 -0.8869     
        515      0.1013     -0.9037     
        516      5.0507E-02 -0.8762     
        517      1.3641E-02 -0.9246     

 MAXIMUM         0.2092       0.000    
 AT NODE                 5           3

 MINIMUM        -0.2807      -1.097    
 AT NODE                13           5


                                INCREMENT    98 SUMMARY


 TIME INCREMENT COMPLETED  0.100    ,  FRACTION OF STEP COMPLETED  0.990    
 STEP TIME COMPLETED        9.80    ,  TOTAL TIME COMPLETED         9.80    
  
  
  
  
                                       N O D E   O U T P U T
  
  
  
  
   THE FOLLOWING TABLE IS PRINTED FOR ALL NODES
  
       NODE FOOT-   U1          U2       
            NOTE
  
          1     -3.3530E-03 -0.8273     
          2      8.9217E-02 -0.8820     
          5      0.1709      -1.072     
          6     -2.1310E-02 -0.8603     
          9      4.1888E-02 -0.6827     
         10      3.0188E-02 -0.9075     
         11      7.9218E-02 -0.9273     
         12     -0.2460     -0.9670     
         13     -0.3587     -0.9073     
         14     -0.1485     -0.8731     
         15     -7.0105E-02 -0.9439     
         16      5.1926E-02 -0.7814     
         17     -1.3579E-02 -0.7983     
         18      8.1321E-03 -0.9019     
         62     -9.5602E-02 -0.9265     
         63     -0.1030     -0.8788     
         64      3.6761E-02 -0.8102     
         65      1.3416E-02 -0.8334     
         66      3.8827E-02 -0.7579     
         67      0.2723     -0.8629     
         68      0.2250      -1.016     
         69      5.8419E-02 -0.9261     
         70     -4.8263E-02 -0.9342     
        114      3.3961E-02 -0.8898     
        115      1.8612E-02 -0.8071     
        116     -2.3426E-03 -0.7299     
        117      6.1636E-02 -0.8562     
        118      6.3463E-02 -0.7793     
        119      4.2318E-02 -0.7938     
        120      5.8479E-02 -0.8500     
        121      3.9489E-02 -0.9048     
        122      8.0114E-02  -1.076     
        123      0.1017     -0.9273     
        124     -2.1998E-02 -0.8373     
        125      1.7493E-02 -0.9531     
        126      1.0509E-02 -0.8869     
        127     -5.9390E-02 -0.7964     
        128     -1.6576E-02 -0.9269     
        129     -5.9289E-02 -0.8375     
        130      1.4044E-02 -0.9540     
        437      2.5315E-02 -0.9179     
        438      3.0230E-02 -0.8472     
        439      0.1234     -0.9254     
        440      0.2618     -0.9903     
        441      7.0085E-02 -0.9443     
        442      1.0944E-02 -0.8851     
        443      2.4809E-02 -0.8294     
        444     -9.3525E-02 -0.8459     
        445     -0.1010     -0.8869     
        446      5.5620E-02 -0.9002     
        447      4.7708E-02 -0.8609     
        448      5.4055E-02 -0.8492     
        449      0.1884     -0.8665     
        450      6.0326E-02 -0.8717     
        451      4.5654E-02 -0.8324     
        452      8.9424E-02 -0.8157     
        453     -5.8800E-02 -0.7481     
        454     -0.1560     -0.7488     
        455      3.7910E-02 -0.9226     
        456      3.2478E-03 -0.8105     
        457     -2.6039E-02 -0.8140     
        458      0.1147     -0.8191     
        459      7.7144E-02 -0.6959     
        460      9.1455E-02 -0.6699     
        461      7.1189E-02 -0.6724     
        462     -4.3934E-02 -0.7004     
        463     -0.1052     -0.7164     
        464      2.8244E-02 -0.8888     
        465     -3.4778E-02 -0.7548     
        466     -8.0027E-02 -0.6880     
        467      2.4435E-02 -0.6951     
        468      0.1302     -0.6641     
        469      6.9389E-02 -0.7270     
        470     -2.8623E-04 -0.7648     
        471     -1.6523E-02 -0.8539     
        472     -4.2379E-02 -0.8229     
        473     -6.8868E-02 -0.8416     
        474     -3.1319E-02 -0.7326     
        475     -4.3197E-02 -0.6697     
        476     -1.2567E-02 -0.7117     
        477      0.1079     -0.7070     
        478      3.3699E-02 -0.7217     
        479      1.2550E-02 -0.7341     
        480     -2.0832E-02 -0.7488     
        481      3.3867E-02 -0.7215     
        482     -3.1402E-02 -0.9018     
        483     -3.1472E-02 -0.7119     
        484     -5.7090E-02 -0.6749     
        485     -7.3103E-02 -0.7672     
        486      2.8549E-02 -0.8020     
        487      8.8889E-02 -0.8712     
        488      4.7574E-02 -0.7890     
        489      7.7953E-03 -0.7871     
        490     -1.7441E-02 -0.7141     
        491      8.5608E-03 -0.8576     
        492     -1.6335E-02 -0.7754     
        493     -4.4281E-02 -0.7813     
        494     -8.4154E-02 -0.7588     
        495     -0.1186     -0.8048     
        496      1.2907E-02 -0.7922     
        497      8.3660E-02 -0.7333     
        498      1.5573E-03 -0.6811     
        499     -1.3247E-02 -0.7396     
        500     -1.3356E-02 -0.8099     
        501     -4.8279E-03 -0.7740     
        502     -4.5355E-02 -0.8556     
        503     -0.1116     -0.8673     
        504     -0.2690     -0.7958     
        505     -5.2214E-02 -0.8265     
        506      9.4587E-02 -0.8232     
        507      6.7934E-02 -0.7719     
        508     -3.1256E-02 -0.7872     
        509      3.9708E-02  -1.048     
        510      5.5256E-02 -0.9358     
        511     -0.1320     -0.8761     
        512     -0.2555     -0.8260     
        513     -0.2558     -0.8031     
        514     -8.2415E-02 -0.9046     
        515      8.7339E-02 -0.8618     
        516      5.5424E-02 -0.8576     
        517      1.7687E-02 -0.9486     

 MAXIMUM         0.2723       0.000    
 AT NODE                67           3

 MINIMUM        -0.3587      -1.076    
 AT NODE                13         122


                                INCREMENT    99 SUMMARY


 TIME INCREMENT COMPLETED  0.100    ,  FRACTION OF STEP COMPLETED   1.00    
 STEP TIME COMPLETED        9.90    ,  TOTAL TIME COMPLETED         9.90    
  
  
  
  
                                       N O D E   O U T P U T
  
  
  
  
   THE FOLLOWING TABLE IS PRINTED FOR ALL NODES
  
       NODE FOOT-   U1          U2       
            NOTE
  
          1     -2.0856E-02 -0.8563     
          2      4.4419E-02 -0.8823     
          5      9.9696E-02  -1.027     
          6      4.8759E-02 -0.8895     
          9      1.8751E-02 -0.7323     
         10     -4.5538E-02 -0.9624     
         11      7.7081E-02 -0.9219     
         12     -0.2755     -0.9657     
         13     -0.3904     -0.9419     
         14     -0.1770     -0.9031     
         15     -6.0033E-02 -0.9638     
         16      7.8563E-02 -0.8495     
         17     -1.3766E-02 -0.7673     
         18      2.5186E-02 -0.8341     
         62     -0.1056     -0.9128     
         63     -0.1014     -0.9059     
         64      8.2386E-02 -0.8486     
         65      1.6329E-02 -0.8833     
         66      4.8196E-03 -0.8097     
         67      0.3248     -0.9122     
         68      0.2720      -1.026     
         69      0.1163     -0.9153     
         70      1.0457E-02 -0.9930     
        114      1.2045E-02 -0.8605     
        115      1.4441E-02 -0.8146     
        116      1.3044E-02 -0.7431     
        117      6.1059E-02 -0.8905     
        118      1.7831E-02 -0.7942     
        119      5.4789E-02 -0.8077     
        120      4.4622E-02 -0.9182     
        121      1.8387E-02 -0.9655     
        122      8.0986E-02  -1.013     
        123      9.2639E-02 -0.9191     
        124     -2.3202E-02 -0.9114     
        125     -2.2397E-02 -0.9836     
        126      1.3087E-02 -0.9090     
        127     -6.7877E-02 -0.8987     
        128     -2.4096E-02 -0.8926     
        129     -2.5250E-02 -0.8309     
        130      4.0937E-02 -0.9667     
        437      4.1030E-02 -0.9346     
        438      6.0516E-02 -0.8322     
        439      0.1382     -0.8749     
        440      0.3064     -0.9835     
        441      6.8926E-02 -0.9443     
        442      1.6220E-02 -0.8858     
        443      7.7820E-02 -0.8596     
        444     -7.4714E-02 -0.8465     
        445     -8.3528E-02 -0.8509     
        446      3.8483E-02 -0.8352     
        447      2.8779E-02 -0.8501     
        448      5.9529E-02 -0.8391     
        449      0.2115     -0.8670     
        450      7.9344E-02 -0.8652     
        451      3.7219E-02 -0.8165     
        452      7.5020E-02 -0.8471     
        453     -3.4349E-02 -0.7956     
        454     -0.1211     -0.7692     
        455      3.4230E-02 -0.8956     
        456     -2.1869E-02 -0.7984     
        457      1.8380E-02 -0.7871     
        458      6.6845E-02 -0.7712     
        459      5.0903E-02 -0.7293     
        460      9.9658E-02 -0.6867     
        461      7.3649E-02 -0.7334     
        462     -2.7330E-02 -0.6880     
        463     -8.1863E-02 -0.7244     
        464      5.5384E-03 -0.9908     
        465     -4.3504E-03 -0.8355     
        466     -3.2105E-02 -0.7177     
        467     -4.7580E-02 -0.6895     
        468      9.4411E-02 -0.6478     
        469      0.1085     -0.7081     
        470      1.9828E-02 -0.7899     
        471     -3.2899E-03 -0.8314     
        472     -3.1493E-02 -0.8298     
        473     -7.2644E-02 -0.8126     
        474     -3.3010E-02 -0.7034     
        475     -3.0259E-02 -0.7031     
        476     -4.1798E-02 -0.7018     
        477      0.1183     -0.7253     
        478      3.7852E-02 -0.7217     
        479      2.7442E-02 -0.8219     
        480     -1.2115E-02 -0.7724     
        481      4.0946E-03 -0.7467     
        482     -3.9916E-02 -0.9443     
        483     -3.2582E-03 -0.7710     
        484     -7.4780E-02 -0.6905     
        485     -5.9635E-02 -0.7141     
        486      1.4698E-02 -0.7849     
        487      5.0472E-02 -0.8534     
        488      5.3506E-02 -0.8355     
        489     -2.7579E-03 -0.7873     
        490     -2.7227E-02 -0.7504     
        491     -1.5343E-02 -0.8324     
        492      8.0029E-03 -0.7465     
        493     -9.7105E-02 -0.7539     
        494     -5.1847E-02 -0.7698     
        495     -0.1043     -0.7977     
        496     -3.3267E-02 -0.8021     
        497      5.4260E-02 -0.7829     
        498      3.8750E-02 -0.7209     
        499     -3.4587E-02 -0.7465     
        500     -1.4170E-02 -0.8260     
        501     -4.7166E-03 -0.7494     
        502     -4.8933E-02 -0.8389     
        503     -0.1361     -0.8332     
        504     -0.2102     -0.8231     
        505     -0.1213     -0.8603     
        506      7.3526E-02 -0.8633     
        507      6.3156E-02 -0.7939     
        508     -1.1933E-02 -0.8587     
        509      8.8826E-03  -1.031     
        510      5.7284E-02 -0.9249     
        511     -0.1435     -0.8866     
        512     -0.2590     -0.8458     
        513     -0.2336     -0.8074     
        514     -0.1371     -0.8802     
        515      4.7509E-02 -0.8151     
        516      4.9055E-02 -0.8497     
        517      1.8926E-02 -0.9309     

 MAXIMUM         0.3248       0.000    
 AT NODE                67           3

 MINIMUM        -0.3904      -1.031    
 AT NODE                13         509


          THE ANALYSIS HAS BEEN COMPLETED



                              ANALYSIS COMPLETE
                              WITH      2 WARNING MESSAGES ON THE DAT FILE



     JOB TIME SUMMARY
       USER TIME (SEC)      =   8.7100    
       SYSTEM TIME (SEC)    =  0.18000    
       TOTAL CPU TIME (SEC) =   8.8900    
       WALLCLOCK TIME (SEC) =          9
