*HEADING
 VERIFICATION OF ABAQUS ELEMENT PRINCIPAL LOGARITHMIC STRAINS OUTPUT TO MATLAB (LEP, RECORD KEY 405)
*RESTART,WRITE
*NODE, NSET=NALL
1,
2,1.,
*ELEMENT,TYPE=PIPE31,ELSET=EALL
1,1,2,
*BEAM SECTION,SECTION=PIPE,ELSET=EALL,MATERIAL=COPPER
1.01,0.02,
*MATERIAL,NAME=COPPER
*ELASTIC
104.E3,0.3
*PLASTIC,HARD=COMBINED,DATA TYPE=STABILIZED
 0.46940E+02, 0.0000
 0.52044E+02, 0.50927E-04
 0.56826E+02, 0.10494E-03
 0.61273E+02, 0.16218E-03
 0.65813E+02, 0.21853E-03
 0.69556E+02, 0.27253E-03
 0.72703E+02, 0.34228E-03
 0.76541E+02, 0.39538E-03
 0.79630E+02, 0.49568E-03
 0.82886E+02, 0.55437E-03
 0.85974E+02, 0.61468E-03
 0.88910E+02, 0.69644E-03
 0.91647E+02, 0.76012E-03
 0.94263E+02, 0.83498E-03
 0.96266E+02, 0.92571E-03
 0.99020E+02, 0.99923E-03
 0.10099E+03, 0.10803E-02
 0.10310E+03, 0.11600E-02
 0.10534E+03, 0.12385E-02
 0.10691E+03, 0.13233E-02
** ... 110 like lines cut
*CYCLIC HARDENING
13.,0.000
13.,0.0068
29.37,.034
50.13,.0612
63.91,.0884
73.01,.1156
80.76,.1428
86.25,.1700
90.498,.1972
93.95,.2244
96.155,.2516
*BOUNDARY
1,1,6
*STEP,INC=10
*STATIC,DIRECT
0.1,1.,
*BOUNDARY
2,1,1,0.01
*FILE FORMAT, ASCII
*EL FILE
LEP
*END STEP